data_image0
_cell_length_a       37.1295
_cell_length_b       37.1295
_cell_length_c       30.052
_cell_angle_alpha    90
_cell_angle_beta     90
_cell_angle_gamma    120

_symmetry_space_group_name_H-M    "P 1"
_symmetry_int_tables_number       1

loop_
  _symmetry_equiv_pos_as_xyz
  'x, y, z'

loop_
  _atom_site_label
  _atom_site_occupancy
  _atom_site_fract_x
  _atom_site_fract_y
  _atom_site_fract_z
  _atom_site_thermal_displace_type
  _atom_site_B_iso_or_equiv
  _atom_site_type_symbol
  _atom_site_charge
  Zn1      1.0000 0.66670  0.33330  0.19073  Biso   1.000  Zn  0.5192858209737200
  Zn2      1.0000 0.66670  0.33330  0.30927  Biso   1.000  Zn  0.5192858209737200
  Zn3      1.0000 0.33330  0.66670  0.80927  Biso   1.000  Zn  0.5192858209737200
  Zn4      1.0000 0.33330  0.66670  0.69073  Biso   1.000  Zn  0.5192858209737200
  Zn5      1.0000 0.18762  0.88811  0.27736  Biso   1.000  Zn  0.5708317936050374
  Zn6      1.0000 0.11189  0.29951  0.27736  Biso   1.000  Zn  0.5708317936050374
  Zn7      1.0000 0.70049  0.81238  0.27736  Biso   1.000  Zn  0.5708317936050374
  Zn8      1.0000 0.11189  0.81238  0.22264  Biso   1.000  Zn  0.5708317936050374
  Zn9      1.0000 0.18762  0.29951  0.22264  Biso   1.000  Zn  0.5708317936050374
  Zn10     1.0000 0.70049  0.88811  0.22264  Biso   1.000  Zn  0.5708317936050374
  Zn11     1.0000 0.81238  0.11189  0.72264  Biso   1.000  Zn  0.5708317936050374
  Zn12     1.0000 0.88811  0.70049  0.72264  Biso   1.000  Zn  0.5708317936050374
  Zn13     1.0000 0.29951  0.18762  0.72264  Biso   1.000  Zn  0.5708317936050374
  Zn14     1.0000 0.88811  0.18762  0.77736  Biso   1.000  Zn  0.5708317936050374
  Zn15     1.0000 0.81238  0.70049  0.77736  Biso   1.000  Zn  0.5708317936050374
  Zn16     1.0000 0.29951  0.11189  0.77736  Biso   1.000  Zn  0.5708317936050374
  Zn17     1.0000 0.20610  0.83671  0.20583  Biso   1.000  Zn  0.7201670666191161
  Zn18     1.0000 0.16329  0.36939  0.20583  Biso   1.000  Zn  0.7201670666191161
  Zn19     1.0000 0.63061  0.79390  0.20583  Biso   1.000  Zn  0.7201670666191161
  Zn20     1.0000 0.16329  0.79390  0.29417  Biso   1.000  Zn  0.7201670666191161
  Zn21     1.0000 0.20610  0.36939  0.29417  Biso   1.000  Zn  0.7201670666191161
  Zn22     1.0000 0.63061  0.83671  0.29417  Biso   1.000  Zn  0.7201670666191161
  Zn23     1.0000 0.79390  0.16329  0.79417  Biso   1.000  Zn  0.7201670666191161
  Zn24     1.0000 0.83671  0.63061  0.79417  Biso   1.000  Zn  0.7201670666191161
  Zn25     1.0000 0.36939  0.20610  0.79417  Biso   1.000  Zn  0.7201670666191161
  Zn26     1.0000 0.83671  0.20610  0.70583  Biso   1.000  Zn  0.7201670666191161
  Zn27     1.0000 0.79390  0.63061  0.70583  Biso   1.000  Zn  0.7201670666191161
  Zn28     1.0000 0.36939  0.16329  0.70583  Biso   1.000  Zn  0.7201670666191161
  Zn29     1.0000 0.22443  0.85885  0.26117  Biso   1.000  Zn  0.5090858688954867
  Zn30     1.0000 0.14115  0.36558  0.26117  Biso   1.000  Zn  0.5090858688954867
  Zn31     1.0000 0.63442  0.77557  0.26117  Biso   1.000  Zn  0.5090858688954867
  Zn32     1.0000 0.14115  0.77557  0.23883  Biso   1.000  Zn  0.5090858688954867
  Zn33     1.0000 0.22443  0.36558  0.23883  Biso   1.000  Zn  0.5090858688954867
  Zn34     1.0000 0.63442  0.85885  0.23883  Biso   1.000  Zn  0.5090858688954867
  Zn35     1.0000 0.77557  0.14115  0.73883  Biso   1.000  Zn  0.5090858688954867
  Zn36     1.0000 0.85885  0.63442  0.73883  Biso   1.000  Zn  0.5090858688954867
  Zn37     1.0000 0.36558  0.22443  0.73883  Biso   1.000  Zn  0.5090858688954867
  Zn38     1.0000 0.85885  0.22443  0.76117  Biso   1.000  Zn  0.5090858688954867
  Zn39     1.0000 0.77557  0.63442  0.76117  Biso   1.000  Zn  0.5090858688954867
  Zn40     1.0000 0.36558  0.14115  0.76117  Biso   1.000  Zn  0.5090858688954867
  Zn41     1.0000 0.62342  0.28021  0.27816  Biso   1.000  Zn  0.5874194226943426
  Zn42     1.0000 0.71979  0.34321  0.27816  Biso   1.000  Zn  0.5875285166307757
  Zn43     1.0000 0.65679  0.37658  0.27816  Biso   1.000  Zn  0.5867050733223007
  Zn44     1.0000 0.71979  0.37658  0.22184  Biso   1.000  Zn  0.5874194226943426
  Zn45     1.0000 0.62342  0.34321  0.22184  Biso   1.000  Zn  0.5867050733223007
  Zn46     1.0000 0.65679  0.28021  0.22184  Biso   1.000  Zn  0.5875285166307757
  Zn47     1.0000 0.37658  0.71979  0.72184  Biso   1.000  Zn  0.5874194226943426
  Zn48     1.0000 0.28021  0.65679  0.72184  Biso   1.000  Zn  0.5875285166307757
  Zn49     1.0000 0.34321  0.62342  0.72184  Biso   1.000  Zn  0.5867050733223007
  Zn50     1.0000 0.28021  0.62342  0.77816  Biso   1.000  Zn  0.5874194226943426
  Zn51     1.0000 0.37658  0.65679  0.77816  Biso   1.000  Zn  0.5867050733223007
  Zn52     1.0000 0.34321  0.71979  0.77816  Biso   1.000  Zn  0.5875285166307757
  Zn53     1.0000 0.15604  0.86116  0.19833  Biso   1.000  Zn  0.7181499542599856
  Zn54     1.0000 0.13884  0.29488  0.19833  Biso   1.000  Zn  0.7181499542599856
  Zn55     1.0000 0.70512  0.84396  0.19833  Biso   1.000  Zn  0.7181499542599856
  Zn56     1.0000 0.13884  0.84396  0.30167  Biso   1.000  Zn  0.7181499542599856
  Zn57     1.0000 0.15604  0.29488  0.30167  Biso   1.000  Zn  0.7181499542599856
  Zn58     1.0000 0.70512  0.86116  0.30167  Biso   1.000  Zn  0.7181499542599856
  Zn59     1.0000 0.84396  0.13884  0.80167  Biso   1.000  Zn  0.7181499542599856
  Zn60     1.0000 0.86116  0.70512  0.80167  Biso   1.000  Zn  0.7181499542599856
  Zn61     1.0000 0.29488  0.15604  0.80167  Biso   1.000  Zn  0.7181499542599856
  Zn62     1.0000 0.86116  0.15604  0.69833  Biso   1.000  Zn  0.7181499542599856
  Zn63     1.0000 0.84396  0.70512  0.69833  Biso   1.000  Zn  0.7181499542599856
  Zn64     1.0000 0.29488  0.13884  0.69833  Biso   1.000  Zn  0.7181499542599856
  O1       1.0000 0.66670  0.33330  0.25000  Biso   1.000  O  -0.7806148486320010
  O2       1.0000 0.33330  0.66670  0.75000  Biso   1.000  O  -0.7806148486320010
  O3       1.0000 0.16603  0.83397  0.25000  Biso   1.000  O  -0.7980700930372026
  O4       1.0000 0.16603  0.33206  0.25000  Biso   1.000  O  -0.7980700930372026
  O5       1.0000 0.66794  0.83397  0.25000  Biso   1.000  O  -0.7980700930372026
  O6       1.0000 0.83397  0.16603  0.75000  Biso   1.000  O  -0.7980700930372026
  O7       1.0000 0.83397  0.66794  0.75000  Biso   1.000  O  -0.7980700930372026
  O8       1.0000 0.33206  0.16603  0.75000  Biso   1.000  O  -0.7980700930372026
  O9       1.0000 0.23860  0.81560  0.24600  Biso   1.000  O  -0.3842495854874923
  O10      1.0000 0.18440  0.42300  0.24600  Biso   1.000  O  -0.3842495854874923
  O11      1.0000 0.57700  0.76140  0.24600  Biso   1.000  O  -0.3842495854874923
  O12      1.0000 0.18440  0.76140  0.25400  Biso   1.000  O  -0.3842495854874923
  O13      1.0000 0.23860  0.42300  0.25400  Biso   1.000  O  -0.3842495854874923
  O14      1.0000 0.57700  0.81560  0.25400  Biso   1.000  O  -0.3842495854874923
  O15      1.0000 0.76140  0.18440  0.75400  Biso   1.000  O  -0.3842495854874923
  O16      1.0000 0.81560  0.57700  0.75400  Biso   1.000  O  -0.3842495854874923
  O17      1.0000 0.42300  0.23860  0.75400  Biso   1.000  O  -0.3842495854874923
  O18      1.0000 0.81560  0.23860  0.74600  Biso   1.000  O  -0.3842495854874923
  O19      1.0000 0.76140  0.57700  0.74600  Biso   1.000  O  -0.3842495854874923
  O20      1.0000 0.42300  0.18440  0.74600  Biso   1.000  O  -0.3842495854874923
  C1       1.0000 0.35479  0.70960  0.25000  Biso   1.000  C  -0.1986844362638468
  C2       1.0000 0.29040  0.64519  0.25000  Biso   1.000  C  -0.1986844362638468
  C3       1.0000 0.35481  0.64521  0.25000  Biso   1.000  C  -0.1986844362638468
  C4       1.0000 0.64521  0.29040  0.75000  Biso   1.000  C  -0.1986844362638468
  C5       1.0000 0.70960  0.35481  0.75000  Biso   1.000  C  -0.1986844362638468
  C6       1.0000 0.64519  0.35479  0.75000  Biso   1.000  C  -0.1986844362638468
  H1       1.0000 0.36930  0.73850  0.25000  Biso   1.000  H  0.1051782226571782
  H2       1.0000 0.26150  0.63080  0.25000  Biso   1.000  H  0.1051782226571782
  H3       1.0000 0.36920  0.63070  0.25000  Biso   1.000  H  0.1051782226571782
  H4       1.0000 0.63070  0.26150  0.75000  Biso   1.000  H  0.1051782226571782
  H5       1.0000 0.73850  0.36920  0.75000  Biso   1.000  H  0.1051782226571782
  H6       1.0000 0.63080  0.36930  0.75000  Biso   1.000  H  0.1051782226571782
  O21      1.0000 0.24660  0.89260  0.19000  Biso   1.000  O  -0.0792646781365363
  O22      1.0000 0.10740  0.35400  0.19000  Biso   1.000  O  -0.0792646781365363
  O23      1.0000 0.64600  0.75340  0.19000  Biso   1.000  O  -0.0792646781365363
  O24      1.0000 0.10740  0.75340  0.31000  Biso   1.000  O  -0.0792646781365363
  O25      1.0000 0.24660  0.35400  0.31000  Biso   1.000  O  -0.0792646781365363
  O26      1.0000 0.64600  0.89260  0.31000  Biso   1.000  O  -0.0792646781365363
  O27      1.0000 0.75340  0.10740  0.81000  Biso   1.000  O  -0.0792646781365363
  O28      1.0000 0.89260  0.64600  0.81000  Biso   1.000  O  -0.0792646781365363
  O29      1.0000 0.35400  0.24660  0.81000  Biso   1.000  O  -0.0792646781365363
  O30      1.0000 0.89260  0.24660  0.69000  Biso   1.000  O  -0.0792646781365363
  O31      1.0000 0.75340  0.64600  0.69000  Biso   1.000  O  -0.0792646781365363
  O32      1.0000 0.35400  0.10740  0.69000  Biso   1.000  O  -0.0792646781365363
  O33      1.0000 0.61660  0.29020  0.16560  Biso   1.000  O  -0.2058681868802182
  O34      1.0000 0.70980  0.32640  0.16560  Biso   1.000  O  -0.2058681868802182
  O35      1.0000 0.67360  0.38340  0.16560  Biso   1.000  O  -0.2058681868802182
  O36      1.0000 0.70980  0.38340  0.33440  Biso   1.000  O  -0.2058681868802182
  O37      1.0000 0.61660  0.32640  0.33440  Biso   1.000  O  -0.2058681868802182
  O38      1.0000 0.67360  0.29020  0.33440  Biso   1.000  O  -0.2058681868802182
  O39      1.0000 0.38340  0.70980  0.83440  Biso   1.000  O  -0.2058681868802182
  O40      1.0000 0.29020  0.67360  0.83440  Biso   1.000  O  -0.2058681868802182
  O41      1.0000 0.32640  0.61660  0.83440  Biso   1.000  O  -0.2058681868802182
  O42      1.0000 0.29020  0.61660  0.66560  Biso   1.000  O  -0.2058681868802182
  O43      1.0000 0.38340  0.67360  0.66560  Biso   1.000  O  -0.2058681868802182
  O44      1.0000 0.32640  0.70980  0.66560  Biso   1.000  O  -0.2058681868802182
  C7       1.0000 0.24508  0.75492  0.25000  Biso   1.000  C  -0.1601346872615796
  C8       1.0000 0.24508  0.49016  0.25000  Biso   1.000  C  -0.1601346872615796
  C9       1.0000 0.50984  0.75492  0.25000  Biso   1.000  C  -0.1601346872615796
  C10      1.0000 0.75492  0.24508  0.75000  Biso   1.000  C  -0.1601346872615796
  C11      1.0000 0.75492  0.50984  0.75000  Biso   1.000  C  -0.1601346872615796
  C12      1.0000 0.49016  0.24508  0.75000  Biso   1.000  C  -0.1601346872615796
  C13      1.0000 0.31188  0.68812  0.25000  Biso   1.000  C  0.0613914452521635
  C14      1.0000 0.31188  0.62376  0.25000  Biso   1.000  C  0.0613914452521635
  C15      1.0000 0.37624  0.68812  0.25000  Biso   1.000  C  0.0613914452521635
  C16      1.0000 0.68812  0.31188  0.75000  Biso   1.000  C  0.0613914452521635
  C17      1.0000 0.68812  0.37624  0.75000  Biso   1.000  C  0.0613914452521635
  C18      1.0000 0.62376  0.31188  0.75000  Biso   1.000  C  0.0613914452521635
  C19      1.0000 0.28861  0.71139  0.25000  Biso   1.000  C  0.1023680855844911
  C20      1.0000 0.28861  0.57722  0.25000  Biso   1.000  C  0.1023680855844911
  C21      1.0000 0.42278  0.71139  0.25000  Biso   1.000  C  0.1023680855844911
  C22      1.0000 0.71139  0.28861  0.75000  Biso   1.000  C  0.1023680855844911
  C23      1.0000 0.71139  0.42278  0.75000  Biso   1.000  C  0.1023680855844911
  C24      1.0000 0.57722  0.28861  0.75000  Biso   1.000  C  0.1023680855844911
  C25      1.0000 0.22240  0.77760  0.25000  Biso   1.000  C  0.4806578269330710
  C26      1.0000 0.22240  0.44480  0.25000  Biso   1.000  C  0.4806578269330710
  C27      1.0000 0.55520  0.77760  0.25000  Biso   1.000  C  0.4806578269330710
  C28      1.0000 0.77760  0.22240  0.75000  Biso   1.000  C  0.4806578269330710
  C29      1.0000 0.77760  0.55520  0.75000  Biso   1.000  C  0.4806578269330710
  C30      1.0000 0.44480  0.22240  0.75000  Biso   1.000  C  0.4806578269330710
  C31      1.0000 0.28120  0.96134  0.17500  Biso   1.000  C  -0.1184722926199156
  C32      1.0000 0.03866  0.31986  0.17500  Biso   1.000  C  -0.1184722926199156
  C33      1.0000 0.68014  0.71880  0.17500  Biso   1.000  C  -0.1184722926199156
  C34      1.0000 0.03866  0.71880  0.32500  Biso   1.000  C  -0.1184722926199156
  C35      1.0000 0.28120  0.31986  0.32500  Biso   1.000  C  -0.1184722926199156
  C36      1.0000 0.68014  0.96134  0.32500  Biso   1.000  C  -0.1184722926199156
  C37      1.0000 0.71880  0.03866  0.82500  Biso   1.000  C  -0.1184722926199156
  C38      1.0000 0.96134  0.68014  0.82500  Biso   1.000  C  -0.1184722926199156
  C39      1.0000 0.31986  0.28120  0.82500  Biso   1.000  C  -0.1184722926199156
  C40      1.0000 0.96134  0.28120  0.67500  Biso   1.000  C  -0.1184722926199156
  C41      1.0000 0.71880  0.68014  0.67500  Biso   1.000  C  -0.1184722926199156
  C42      1.0000 0.31986  0.03866  0.67500  Biso   1.000  C  -0.1184722926199156
  C43      1.0000 0.32380  0.97820  0.18140  Biso   1.000  C  0.2140084702585437
  C44      1.0000 0.02180  0.34560  0.18140  Biso   1.000  C  0.2140084702585437
  C45      1.0000 0.65440  0.67620  0.18140  Biso   1.000  C  0.2140084702585437
  C46      1.0000 0.02180  0.67620  0.31860  Biso   1.000  C  0.2140084702585437
  C47      1.0000 0.32380  0.34560  0.31860  Biso   1.000  C  0.2140084702585437
  C48      1.0000 0.65440  0.97820  0.31860  Biso   1.000  C  0.2140084702585437
  C49      1.0000 0.67620  0.02180  0.81860  Biso   1.000  C  0.2140084702585437
  C50      1.0000 0.97820  0.65440  0.81860  Biso   1.000  C  0.2140084702585437
  C51      1.0000 0.34560  0.32380  0.81860  Biso   1.000  C  0.2140084702585437
  C52      1.0000 0.97820  0.32380  0.68140  Biso   1.000  C  0.2140084702585437
  C53      1.0000 0.67620  0.65440  0.68140  Biso   1.000  C  0.2140084702585437
  C54      1.0000 0.34560  0.02180  0.68140  Biso   1.000  C  0.2140084702585437
  C55      1.0000 0.35171  0.01400  0.15860  Biso   1.000  C  -0.1244065091007007
  C56      1.0000 0.98600  0.33771  0.15860  Biso   1.000  C  -0.1244065091007007
  C57      1.0000 0.66229  0.64829  0.15860  Biso   1.000  C  -0.1244065091007007
  C58      1.0000 0.98600  0.64829  0.34140  Biso   1.000  C  -0.1244065091007007
  C59      1.0000 0.35171  0.33771  0.34140  Biso   1.000  C  -0.1244065091007007
  C60      1.0000 0.66229  0.01400  0.34140  Biso   1.000  C  -0.1244065091007007
  C61      1.0000 0.64829  0.98600  0.84140  Biso   1.000  C  -0.1244065091007007
  C62      1.0000 0.01400  0.66229  0.84140  Biso   1.000  C  -0.1244065091007007
  C63      1.0000 0.33771  0.35171  0.84140  Biso   1.000  C  -0.1244065091007007
  C64      1.0000 0.01400  0.35171  0.65860  Biso   1.000  C  -0.1244065091007007
  C65      1.0000 0.64829  0.66229  0.65860  Biso   1.000  C  -0.1244065091007007
  C66      1.0000 0.33771  0.98600  0.65860  Biso   1.000  C  -0.1244065091007007
  H7       1.0000 0.38020  0.02530  0.16290  Biso   1.000  H  0.1050572835255320
  H8       1.0000 0.97470  0.35490  0.16290  Biso   1.000  H  0.1050572835255320
  H9       1.0000 0.64510  0.61980  0.16290  Biso   1.000  H  0.1050572835255320
  H10      1.0000 0.97470  0.61980  0.33710  Biso   1.000  H  0.1050572835255320
  H11      1.0000 0.38020  0.35490  0.33710  Biso   1.000  H  0.1050572835255320
  H12      1.0000 0.64510  0.02530  0.33710  Biso   1.000  H  0.1050572835255320
  H13      1.0000 0.61980  0.97470  0.83710  Biso   1.000  H  0.1050572835255320
  H14      1.0000 0.02530  0.64510  0.83710  Biso   1.000  H  0.1050572835255320
  H15      1.0000 0.35490  0.38020  0.83710  Biso   1.000  H  0.1050572835255320
  H16      1.0000 0.02530  0.38020  0.66290  Biso   1.000  H  0.1050572835255320
  H17      1.0000 0.61980  0.64510  0.66290  Biso   1.000  H  0.1050572835255320
  H18      1.0000 0.35490  0.97470  0.66290  Biso   1.000  H  0.1050572835255320
  C67      1.0000 0.33715  0.03281  0.12930  Biso   1.000  C  0.0956211990826551
  C68      1.0000 0.96719  0.30434  0.12930  Biso   1.000  C  0.0956211990826551
  C69      1.0000 0.69566  0.66285  0.12930  Biso   1.000  C  0.0956211990826551
  C70      1.0000 0.96719  0.66285  0.37070  Biso   1.000  C  0.0956211990826551
  C71      1.0000 0.33715  0.30434  0.37070  Biso   1.000  C  0.0956211990826551
  C72      1.0000 0.69566  0.03281  0.37070  Biso   1.000  C  0.0956211990826551
  C73      1.0000 0.66285  0.96719  0.87070  Biso   1.000  C  0.0956211990826551
  C74      1.0000 0.03281  0.69566  0.87070  Biso   1.000  C  0.0956211990826551
  C75      1.0000 0.30434  0.33715  0.87070  Biso   1.000  C  0.0956211990826551
  C76      1.0000 0.03281  0.33715  0.62930  Biso   1.000  C  0.0956211990826551
  C77      1.0000 0.66285  0.69566  0.62930  Biso   1.000  C  0.0956211990826551
  C78      1.0000 0.30434  0.96719  0.62930  Biso   1.000  C  0.0956211990826551
  C79      1.0000 0.29460  0.01590  0.12290  Biso   1.000  C  -0.1515294608609715
  C80      1.0000 0.98410  0.27870  0.12290  Biso   1.000  C  -0.1515294608609715
  C81      1.0000 0.72130  0.70540  0.12290  Biso   1.000  C  -0.1515294608609715
  C82      1.0000 0.98410  0.70540  0.37710  Biso   1.000  C  -0.1515294608609715
  C83      1.0000 0.29460  0.27870  0.37710  Biso   1.000  C  -0.1515294608609715
  C84      1.0000 0.72130  0.01590  0.37710  Biso   1.000  C  -0.1515294608609715
  C85      1.0000 0.70540  0.98410  0.87710  Biso   1.000  C  -0.1515294608609715
  C86      1.0000 0.01590  0.72130  0.87710  Biso   1.000  C  -0.1515294608609715
  C87      1.0000 0.27870  0.29460  0.87710  Biso   1.000  C  -0.1515294608609715
  C88      1.0000 0.01590  0.29460  0.62290  Biso   1.000  C  -0.1515294608609715
  C89      1.0000 0.70540  0.72130  0.62290  Biso   1.000  C  -0.1515294608609715
  C90      1.0000 0.27870  0.98410  0.62290  Biso   1.000  C  -0.1515294608609715
  H19      1.0000 0.28490  0.02850  0.10330  Biso   1.000  H  0.1054240373233404
  H20      1.0000 0.97150  0.25640  0.10330  Biso   1.000  H  0.1054240373233404
  H21      1.0000 0.74360  0.71510  0.10330  Biso   1.000  H  0.1054240373233404
  H22      1.0000 0.97150  0.71510  0.39670  Biso   1.000  H  0.1054240373233404
  H23      1.0000 0.28490  0.25640  0.39670  Biso   1.000  H  0.1054240373233404
  H24      1.0000 0.74360  0.02850  0.39670  Biso   1.000  H  0.1054240373233404
  H25      1.0000 0.71510  0.97150  0.89670  Biso   1.000  H  0.1054240373233404
  H26      1.0000 0.02850  0.74360  0.89670  Biso   1.000  H  0.1054240373233404
  H27      1.0000 0.25640  0.28490  0.89670  Biso   1.000  H  0.1054240373233404
  H28      1.0000 0.02850  0.28490  0.60330  Biso   1.000  H  0.1054240373233404
  H29      1.0000 0.71510  0.74360  0.60330  Biso   1.000  H  0.1054240373233404
  H30      1.0000 0.25640  0.97150  0.60330  Biso   1.000  H  0.1054240373233404
  C91      1.0000 0.26668  0.98020  0.14570  Biso   1.000  C  0.3119297201288619
  C92      1.0000 0.01980  0.28648  0.14570  Biso   1.000  C  0.3119297201288619
  C93      1.0000 0.71352  0.73332  0.14570  Biso   1.000  C  0.3119297201288619
  C94      1.0000 0.01980  0.73332  0.35430  Biso   1.000  C  0.3119297201288619
  C95      1.0000 0.26668  0.28648  0.35430  Biso   1.000  C  0.3119297201288619
  C96      1.0000 0.71352  0.98020  0.35430  Biso   1.000  C  0.3119297201288619
  C97      1.0000 0.73332  0.01980  0.85430  Biso   1.000  C  0.3119297201288619
  C98      1.0000 0.98020  0.71352  0.85430  Biso   1.000  C  0.3119297201288619
  C99      1.0000 0.28648  0.26668  0.85430  Biso   1.000  C  0.3119297201288619
  C100     1.0000 0.98020  0.26668  0.64570  Biso   1.000  C  0.3119297201288619
  C101     1.0000 0.73332  0.71352  0.64570  Biso   1.000  C  0.3119297201288619
  C102     1.0000 0.28648  0.01980  0.64570  Biso   1.000  C  0.3119297201288619
  C103     1.0000 0.04461  0.95539  0.25000  Biso   1.000  C  0.0864492048538500
  C104     1.0000 0.04461  0.08922  0.25000  Biso   1.000  C  0.0864492048538500
  C105     1.0000 0.91078  0.95539  0.25000  Biso   1.000  C  0.0864492048538500
  C106     1.0000 0.95539  0.04461  0.75000  Biso   1.000  C  0.0864492048538500
  C107     1.0000 0.95539  0.91078  0.75000  Biso   1.000  C  0.0864492048538500
  C108     1.0000 0.08922  0.04461  0.75000  Biso   1.000  C  0.0864492048538500
  C109     1.0000 0.08891  0.91109  0.25000  Biso   1.000  C  -0.0859565907400930
  C110     1.0000 0.08891  0.17782  0.25000  Biso   1.000  C  -0.0859565907400930
  C111     1.0000 0.82218  0.91109  0.25000  Biso   1.000  C  -0.0859565907400930
  C112     1.0000 0.91109  0.08891  0.75000  Biso   1.000  C  -0.0859565907400930
  C113     1.0000 0.91109  0.82218  0.75000  Biso   1.000  C  -0.0859565907400930
  C114     1.0000 0.17782  0.08891  0.75000  Biso   1.000  C  -0.0859565907400930
  C115     1.0000 0.37540  0.11760  0.98990  Biso   1.000  C  0.1023925220906576
  C116     1.0000 0.88240  0.25780  0.98990  Biso   1.000  C  0.1023925220906576
  C117     1.0000 0.74220  0.62460  0.98990  Biso   1.000  C  0.1023925220906576
  C118     1.0000 0.88240  0.62460  0.51010  Biso   1.000  C  0.1023925220906576
  C119     1.0000 0.37540  0.25780  0.51010  Biso   1.000  C  0.1023925220906576
  C120     1.0000 0.74220  0.11760  0.51010  Biso   1.000  C  0.1023925220906576
  C121     1.0000 0.62460  0.88240  0.01010  Biso   1.000  C  0.1023925220906576
  C122     1.0000 0.11760  0.74220  0.01010  Biso   1.000  C  0.1023925220906576
  C123     1.0000 0.25780  0.37540  0.01010  Biso   1.000  C  0.1023925220906576
  C124     1.0000 0.11760  0.37540  0.48990  Biso   1.000  C  0.1023925220906576
  C125     1.0000 0.62460  0.74220  0.48990  Biso   1.000  C  0.1023925220906576
  C126     1.0000 0.25780  0.88240  0.48990  Biso   1.000  C  0.1023925220906576
  C127     1.0000 0.38890  0.15768  0.97440  Biso   1.000  C  -0.1357354281599618
  C128     1.0000 0.84232  0.23122  0.97440  Biso   1.000  C  -0.1357354281599618
  C129     1.0000 0.76878  0.61110  0.97440  Biso   1.000  C  -0.1357354281599618
  C130     1.0000 0.84232  0.61110  0.52560  Biso   1.000  C  -0.1357354281599618
  C131     1.0000 0.38890  0.23122  0.52560  Biso   1.000  C  -0.1357354281599618
  C132     1.0000 0.76878  0.15768  0.52560  Biso   1.000  C  -0.1357354281599618
  C133     1.0000 0.61110  0.84232  0.02560  Biso   1.000  C  -0.1357354281599618
  C134     1.0000 0.15768  0.76878  0.02560  Biso   1.000  C  -0.1357354281599618
  C135     1.0000 0.23122  0.38890  0.02560  Biso   1.000  C  -0.1357354281599618
  C136     1.0000 0.15768  0.38890  0.47440  Biso   1.000  C  -0.1357354281599618
  C137     1.0000 0.61110  0.76878  0.47440  Biso   1.000  C  -0.1357354281599618
  C138     1.0000 0.23122  0.84232  0.47440  Biso   1.000  C  -0.1357354281599618
  H31      1.0000 0.40410  0.18040  0.99300  Biso   1.000  H  0.1040198717093146
  H32      1.0000 0.81960  0.22370  0.99300  Biso   1.000  H  0.1040198717093146
  H33      1.0000 0.77630  0.59590  0.99300  Biso   1.000  H  0.1040198717093146
  H34      1.0000 0.81960  0.59590  0.50700  Biso   1.000  H  0.1040198717093146
  H35      1.0000 0.40410  0.22370  0.50700  Biso   1.000  H  0.1040198717093146
  H36      1.0000 0.77630  0.18040  0.50700  Biso   1.000  H  0.1040198717093146
  H37      1.0000 0.59590  0.81960  0.00700  Biso   1.000  H  0.1040198717093146
  H38      1.0000 0.18040  0.77630  0.00700  Biso   1.000  H  0.1040198717093146
  H39      1.0000 0.22370  0.40410  0.00700  Biso   1.000  H  0.1040198717093146
  H40      1.0000 0.18040  0.40410  0.49300  Biso   1.000  H  0.1040198717093146
  H41      1.0000 0.59590  0.77630  0.49300  Biso   1.000  H  0.1040198717093146
  H42      1.0000 0.22370  0.81960  0.49300  Biso   1.000  H  0.1040198717093146
  C139     1.0000 0.37960  0.16375  0.93120  Biso   1.000  C  0.2118879896464010
  C140     1.0000 0.83625  0.21585  0.93120  Biso   1.000  C  0.2118879896464010
  C141     1.0000 0.78415  0.62040  0.93120  Biso   1.000  C  0.2118879896464010
  C142     1.0000 0.83625  0.62040  0.56880  Biso   1.000  C  0.2118879896464010
  C143     1.0000 0.37960  0.21585  0.56880  Biso   1.000  C  0.2118879896464010
  C144     1.0000 0.78415  0.16375  0.56880  Biso   1.000  C  0.2118879896464010
  C145     1.0000 0.62040  0.83625  0.06880  Biso   1.000  C  0.2118879896464010
  C146     1.0000 0.16375  0.78415  0.06880  Biso   1.000  C  0.2118879896464010
  C147     1.0000 0.21585  0.37960  0.06880  Biso   1.000  C  0.2118879896464010
  C148     1.0000 0.16375  0.37960  0.43120  Biso   1.000  C  0.2118879896464010
  C149     1.0000 0.62040  0.78415  0.43120  Biso   1.000  C  0.2118879896464010
  C150     1.0000 0.21585  0.83625  0.43120  Biso   1.000  C  0.2118879896464010
  C151     1.0000 0.35680  0.12980  0.90354  Biso   1.000  C  -0.1219809966183576
  C152     1.0000 0.87020  0.22700  0.90354  Biso   1.000  C  -0.1219809966183576
  C153     1.0000 0.77300  0.64320  0.90354  Biso   1.000  C  -0.1219809966183576
  C154     1.0000 0.87020  0.64320  0.59646  Biso   1.000  C  -0.1219809966183576
  C155     1.0000 0.35680  0.22700  0.59646  Biso   1.000  C  -0.1219809966183576
  C156     1.0000 0.77300  0.12980  0.59646  Biso   1.000  C  -0.1219809966183576
  C157     1.0000 0.64320  0.87020  0.09646  Biso   1.000  C  -0.1219809966183576
  C158     1.0000 0.12980  0.77300  0.09646  Biso   1.000  C  -0.1219809966183576
  C159     1.0000 0.22700  0.35680  0.09646  Biso   1.000  C  -0.1219809966183576
  C160     1.0000 0.12980  0.35680  0.40354  Biso   1.000  C  -0.1219809966183576
  C161     1.0000 0.64320  0.77300  0.40354  Biso   1.000  C  -0.1219809966183576
  C162     1.0000 0.22700  0.87020  0.40354  Biso   1.000  C  -0.1219809966183576
  C163     1.0000 0.34330  0.08980  0.91900  Biso   1.000  C  0.2662077837965567
  C164     1.0000 0.91020  0.25350  0.91900  Biso   1.000  C  0.2662077837965567
  C165     1.0000 0.74650  0.65670  0.91900  Biso   1.000  C  0.2662077837965567
  C166     1.0000 0.91020  0.65670  0.58100  Biso   1.000  C  0.2662077837965567
  C167     1.0000 0.34330  0.25350  0.58100  Biso   1.000  C  0.2662077837965567
  C168     1.0000 0.74650  0.08980  0.58100  Biso   1.000  C  0.2662077837965567
  C169     1.0000 0.65670  0.91020  0.08100  Biso   1.000  C  0.2662077837965567
  C170     1.0000 0.08980  0.74650  0.08100  Biso   1.000  C  0.2662077837965567
  C171     1.0000 0.25350  0.34330  0.08100  Biso   1.000  C  0.2662077837965567
  C172     1.0000 0.08980  0.34330  0.41900  Biso   1.000  C  0.2662077837965567
  C173     1.0000 0.65670  0.74650  0.41900  Biso   1.000  C  0.2662077837965567
  C174     1.0000 0.25350  0.91020  0.41900  Biso   1.000  C  0.2662077837965567
  C175     1.0000 0.35260  0.08368  0.96220  Biso   1.000  C  -0.1515294608609715
  C176     1.0000 0.91632  0.26892  0.96220  Biso   1.000  C  -0.1515294608609715
  C177     1.0000 0.73108  0.64740  0.96220  Biso   1.000  C  -0.1515294608609715
  C178     1.0000 0.91632  0.64740  0.53780  Biso   1.000  C  -0.1515294608609715
  C179     1.0000 0.35260  0.26892  0.53780  Biso   1.000  C  -0.1515294608609715
  C180     1.0000 0.73108  0.08368  0.53780  Biso   1.000  C  -0.1515294608609715
  C181     1.0000 0.64740  0.91632  0.03780  Biso   1.000  C  -0.1515294608609715
  C182     1.0000 0.08368  0.73108  0.03780  Biso   1.000  C  -0.1515294608609715
  C183     1.0000 0.26892  0.35260  0.03780  Biso   1.000  C  -0.1515294608609715
  C184     1.0000 0.08368  0.35260  0.46220  Biso   1.000  C  -0.1515294608609715
  C185     1.0000 0.64740  0.73108  0.46220  Biso   1.000  C  -0.1515294608609715
  C186     1.0000 0.26892  0.91632  0.46220  Biso   1.000  C  -0.1515294608609715
  H43      1.0000 0.34360  0.05690  0.97260  Biso   1.000  H  0.1051463162560355
  H44      1.0000 0.94310  0.28670  0.97260  Biso   1.000  H  0.1051463162560355
  H45      1.0000 0.71330  0.65640  0.97260  Biso   1.000  H  0.1051463162560355
  H46      1.0000 0.94310  0.65640  0.52740  Biso   1.000  H  0.1051463162560355
  H47      1.0000 0.34360  0.28670  0.52740  Biso   1.000  H  0.1051463162560355
  H48      1.0000 0.71330  0.05690  0.52740  Biso   1.000  H  0.1051463162560355
  H49      1.0000 0.65640  0.94310  0.02740  Biso   1.000  H  0.1051463162560355
  H50      1.0000 0.05690  0.71330  0.02740  Biso   1.000  H  0.1051463162560355
  H51      1.0000 0.28670  0.34360  0.02740  Biso   1.000  H  0.1051463162560355
  H52      1.0000 0.05690  0.34360  0.47260  Biso   1.000  H  0.1051463162560355
  H53      1.0000 0.65640  0.71330  0.47260  Biso   1.000  H  0.1051463162560355
  H54      1.0000 0.28670  0.94310  0.47260  Biso   1.000  H  0.1051463162560355
  C187     1.0000 0.47168  0.16640  0.12250  Biso   1.000  C  0.0950384152733886
  C188     1.0000 0.83360  0.30528  0.12250  Biso   1.000  C  0.0950384152733886
  C189     1.0000 0.69472  0.52832  0.12250  Biso   1.000  C  0.0950384152733886
  C190     1.0000 0.83360  0.52832  0.37750  Biso   1.000  C  0.0950384152733886
  C191     1.0000 0.47168  0.30528  0.37750  Biso   1.000  C  0.0950384152733886
  C192     1.0000 0.69472  0.16640  0.37750  Biso   1.000  C  0.0950384152733886
  C193     1.0000 0.52832  0.83360  0.87750  Biso   1.000  C  0.0950384152733886
  C194     1.0000 0.16640  0.69472  0.87750  Biso   1.000  C  0.0950384152733886
  C195     1.0000 0.30528  0.47168  0.87750  Biso   1.000  C  0.0950384152733886
  C196     1.0000 0.16640  0.47168  0.62250  Biso   1.000  C  0.0950384152733886
  C197     1.0000 0.52832  0.69472  0.62250  Biso   1.000  C  0.0950384152733886
  C198     1.0000 0.30528  0.83360  0.62250  Biso   1.000  C  0.0950384152733886
  C199     1.0000 0.47380  0.17100  0.16850  Biso   1.000  C  -0.1367249370523999
  C200     1.0000 0.82900  0.30280  0.16850  Biso   1.000  C  -0.1367249370523999
  C201     1.0000 0.69720  0.52620  0.16850  Biso   1.000  C  -0.1367249370523999
  C202     1.0000 0.82900  0.52620  0.33150  Biso   1.000  C  -0.1367249370523999
  C203     1.0000 0.47380  0.30280  0.33150  Biso   1.000  C  -0.1367249370523999
  C204     1.0000 0.69720  0.17100  0.33150  Biso   1.000  C  -0.1367249370523999
  C205     1.0000 0.52620  0.82900  0.83150  Biso   1.000  C  -0.1367249370523999
  C206     1.0000 0.17100  0.69720  0.83150  Biso   1.000  C  -0.1367249370523999
  C207     1.0000 0.30280  0.47380  0.83150  Biso   1.000  C  -0.1367249370523999
  C208     1.0000 0.17100  0.47380  0.66850  Biso   1.000  C  -0.1367249370523999
  C209     1.0000 0.52620  0.69720  0.66850  Biso   1.000  C  -0.1367249370523999
  C210     1.0000 0.30280  0.82900  0.66850  Biso   1.000  C  -0.1367249370523999
  H55      1.0000 0.45060  0.15420  0.18590  Biso   1.000  H  0.1046921857533870
  H56      1.0000 0.84580  0.29640  0.18590  Biso   1.000  H  0.1046921857533870
  H57      1.0000 0.70360  0.54940  0.18590  Biso   1.000  H  0.1046921857533870
  H58      1.0000 0.84580  0.54940  0.31410  Biso   1.000  H  0.1046921857533870
  H59      1.0000 0.45060  0.29640  0.31410  Biso   1.000  H  0.1046921857533870
  H60      1.0000 0.70360  0.15420  0.31410  Biso   1.000  H  0.1046921857533870
  H61      1.0000 0.54940  0.84580  0.81410  Biso   1.000  H  0.1046921857533870
  H62      1.0000 0.15420  0.70360  0.81410  Biso   1.000  H  0.1046921857533870
  H63      1.0000 0.29640  0.45060  0.81410  Biso   1.000  H  0.1046921857533870
  H64      1.0000 0.15420  0.45060  0.68590  Biso   1.000  H  0.1046921857533870
  H65      1.0000 0.54940  0.70360  0.68590  Biso   1.000  H  0.1046921857533870
  H66      1.0000 0.29640  0.84580  0.68590  Biso   1.000  H  0.1046921857533870
  C211     1.0000 0.51050  0.20070  0.18852  Biso   1.000  C  -0.0157223553898226
  C212     1.0000 0.79930  0.30980  0.18852  Biso   1.000  C  -0.0157223553898226
  C213     1.0000 0.69020  0.48950  0.18852  Biso   1.000  C  -0.0157223553898226
  C214     1.0000 0.79930  0.48950  0.31148  Biso   1.000  C  -0.0157223553898226
  C215     1.0000 0.51050  0.30980  0.31148  Biso   1.000  C  -0.0157223553898226
  C216     1.0000 0.69020  0.20070  0.31148  Biso   1.000  C  -0.0157223553898226
  C217     1.0000 0.48950  0.79930  0.81148  Biso   1.000  C  -0.0157223553898226
  C218     1.0000 0.20070  0.69020  0.81148  Biso   1.000  C  -0.0157223553898226
  C219     1.0000 0.30980  0.51050  0.81148  Biso   1.000  C  -0.0157223553898226
  C220     1.0000 0.20070  0.51050  0.68852  Biso   1.000  C  -0.0157223553898226
  C221     1.0000 0.48950  0.69020  0.68852  Biso   1.000  C  -0.0157223553898226
  C222     1.0000 0.30980  0.79930  0.68852  Biso   1.000  C  -0.0157223553898226
  C223     1.0000 0.54510  0.22580  0.16260  Biso   1.000  C  -0.1184722926199156
  C224     1.0000 0.77420  0.31930  0.16260  Biso   1.000  C  -0.1184722926199156
  C225     1.0000 0.68070  0.45490  0.16260  Biso   1.000  C  -0.1184722926199156
  C226     1.0000 0.77420  0.45490  0.33740  Biso   1.000  C  -0.1184722926199156
  C227     1.0000 0.54510  0.31930  0.33740  Biso   1.000  C  -0.1184722926199156
  C228     1.0000 0.68070  0.22580  0.33740  Biso   1.000  C  -0.1184722926199156
  C229     1.0000 0.45490  0.77420  0.83740  Biso   1.000  C  -0.1184722926199156
  C230     1.0000 0.22580  0.68070  0.83740  Biso   1.000  C  -0.1184722926199156
  C231     1.0000 0.31930  0.54510  0.83740  Biso   1.000  C  -0.1184722926199156
  C232     1.0000 0.22580  0.54510  0.66260  Biso   1.000  C  -0.1184722926199156
  C233     1.0000 0.45490  0.68070  0.66260  Biso   1.000  C  -0.1184722926199156
  C234     1.0000 0.31930  0.77420  0.66260  Biso   1.000  C  -0.1184722926199156
  C235     1.0000 0.54300  0.22120  0.11660  Biso   1.000  C  0.2698744875289503
  C236     1.0000 0.77880  0.32180  0.11660  Biso   1.000  C  0.2698744875289503
  C237     1.0000 0.67820  0.45700  0.11660  Biso   1.000  C  0.2698744875289503
  C238     1.0000 0.77880  0.45700  0.38340  Biso   1.000  C  0.2698744875289503
  C239     1.0000 0.54300  0.32180  0.38340  Biso   1.000  C  0.2698744875289503
  C240     1.0000 0.67820  0.22120  0.38340  Biso   1.000  C  0.2698744875289503
  C241     1.0000 0.45700  0.77880  0.88340  Biso   1.000  C  0.2698744875289503
  C242     1.0000 0.22120  0.67820  0.88340  Biso   1.000  C  0.2698744875289503
  C243     1.0000 0.32180  0.54300  0.88340  Biso   1.000  C  0.2698744875289503
  C244     1.0000 0.22120  0.54300  0.61660  Biso   1.000  C  0.2698744875289503
  C245     1.0000 0.45700  0.67820  0.61660  Biso   1.000  C  0.2698744875289503
  C246     1.0000 0.32180  0.77880  0.61660  Biso   1.000  C  0.2698744875289503
  C247     1.0000 0.50630  0.19150  0.09654  Biso   1.000  C  -0.1697373646708188
  C248     1.0000 0.80850  0.31480  0.09654  Biso   1.000  C  -0.1697373646708188
  C249     1.0000 0.68520  0.49370  0.09654  Biso   1.000  C  -0.1697373646708188
  C250     1.0000 0.80850  0.49370  0.40346  Biso   1.000  C  -0.1697373646708188
  C251     1.0000 0.50630  0.31480  0.40346  Biso   1.000  C  -0.1697373646708188
  C252     1.0000 0.68520  0.19150  0.40346  Biso   1.000  C  -0.1697373646708188
  C253     1.0000 0.49370  0.80850  0.90346  Biso   1.000  C  -0.1697373646708188
  C254     1.0000 0.19150  0.68520  0.90346  Biso   1.000  C  -0.1697373646708188
  C255     1.0000 0.31480  0.50630  0.90346  Biso   1.000  C  -0.1697373646708188
  C256     1.0000 0.19150  0.50630  0.59654  Biso   1.000  C  -0.1697373646708188
  C257     1.0000 0.49370  0.68520  0.59654  Biso   1.000  C  -0.1697373646708188
  C258     1.0000 0.31480  0.80850  0.59654  Biso   1.000  C  -0.1697373646708188
  H67      1.0000 0.50490  0.18850  0.06580  Biso   1.000  H  0.1053524035369932
  H68      1.0000 0.81150  0.31640  0.06580  Biso   1.000  H  0.1053524035369932
  H69      1.0000 0.68360  0.49510  0.06580  Biso   1.000  H  0.1053524035369932
  H70      1.0000 0.81150  0.49510  0.43420  Biso   1.000  H  0.1053524035369932
  H71      1.0000 0.50490  0.31640  0.43420  Biso   1.000  H  0.1053524035369932
  H72      1.0000 0.68360  0.18850  0.43420  Biso   1.000  H  0.1053524035369932
  H73      1.0000 0.49510  0.81150  0.93420  Biso   1.000  H  0.1053524035369932
  H74      1.0000 0.18850  0.68360  0.93420  Biso   1.000  H  0.1053524035369932
  H75      1.0000 0.31640  0.50490  0.93420  Biso   1.000  H  0.1053524035369932
  H76      1.0000 0.18850  0.50490  0.56580  Biso   1.000  H  0.1053524035369932
  H77      1.0000 0.49510  0.68360  0.56580  Biso   1.000  H  0.1053524035369932
  H78      1.0000 0.31640  0.81150  0.56580  Biso   1.000  H  0.1053524035369932
  O45      1.0000 0.31820  0.14060  0.85090  Biso   1.000  O  -0.0772368714533328
  O46      1.0000 0.85940  0.17760  0.85090  Biso   1.000  O  -0.0772368714533328
  O47      1.0000 0.82240  0.68180  0.85090  Biso   1.000  O  -0.0772368714533328
  O48      1.0000 0.85940  0.68180  0.64910  Biso   1.000  O  -0.0772368714533328
  O49      1.0000 0.31820  0.17760  0.64910  Biso   1.000  O  -0.0772368714533328
  O50      1.0000 0.82240  0.14060  0.64910  Biso   1.000  O  -0.0772368714533328
  O51      1.0000 0.68180  0.85940  0.14910  Biso   1.000  O  -0.0772368714533328
  O52      1.0000 0.14060  0.82240  0.14910  Biso   1.000  O  -0.0772368714533328
  O53      1.0000 0.17760  0.31820  0.14910  Biso   1.000  O  -0.0772368714533328
  O54      1.0000 0.14060  0.31820  0.35090  Biso   1.000  O  -0.0772368714533328
  O55      1.0000 0.68180  0.82240  0.35090  Biso   1.000  O  -0.0772368714533328
  O56      1.0000 0.17760  0.85940  0.35090  Biso   1.000  O  -0.0772368714533328
  C259     1.0000 0.28260  0.77070  0.22730  Biso   1.000  C  0.2804681957203808
  C260     1.0000 0.22930  0.51190  0.22730  Biso   1.000  C  0.2804681957203808
  C261     1.0000 0.48810  0.71740  0.22730  Biso   1.000  C  0.2804681957203808
  C262     1.0000 0.22930  0.71740  0.27270  Biso   1.000  C  0.2804681957203808
  C263     1.0000 0.28260  0.51190  0.27270  Biso   1.000  C  0.2804681957203808
  C264     1.0000 0.48810  0.77070  0.27270  Biso   1.000  C  0.2804681957203808
  C265     1.0000 0.71740  0.22930  0.77270  Biso   1.000  C  0.2804681957203808
  C266     1.0000 0.77070  0.48810  0.77270  Biso   1.000  C  0.2804681957203808
  C267     1.0000 0.51190  0.28260  0.77270  Biso   1.000  C  0.2804681957203808
  C268     1.0000 0.77070  0.28260  0.72730  Biso   1.000  C  0.2804681957203808
  C269     1.0000 0.71740  0.48810  0.72730  Biso   1.000  C  0.2804681957203808
  C270     1.0000 0.51190  0.22930  0.72730  Biso   1.000  C  0.2804681957203808
  O57      1.0000 0.23500  0.92850  0.24090  Biso   1.000  O  -0.2707801812694804
  O58      1.0000 0.07150  0.30650  0.24090  Biso   1.000  O  -0.2707801812694804
  O59      1.0000 0.69350  0.76500  0.24090  Biso   1.000  O  -0.2707801812694804
  O60      1.0000 0.07150  0.76500  0.25910  Biso   1.000  O  -0.2707801812694804
  O61      1.0000 0.23500  0.30650  0.25910  Biso   1.000  O  -0.2707801812694804
  O62      1.0000 0.69350  0.92850  0.25910  Biso   1.000  O  -0.2707801812694804
  O63      1.0000 0.76500  0.07150  0.75910  Biso   1.000  O  -0.2707801812694804
  O64      1.0000 0.92850  0.69350  0.75910  Biso   1.000  O  -0.2707801812694804
  O65      1.0000 0.30650  0.23500  0.75910  Biso   1.000  O  -0.2707801812694804
  O66      1.0000 0.92850  0.23500  0.74090  Biso   1.000  O  -0.2707801812694804
  O67      1.0000 0.76500  0.69350  0.74090  Biso   1.000  O  -0.2707801812694804
  O68      1.0000 0.30650  0.07150  0.74090  Biso   1.000  O  -0.2707801812694804
  C271     1.0000 0.04280  0.02138  0.25000  Biso   1.000  C  -0.1713229895947039
  C272     1.0000 0.97862  0.02142  0.25000  Biso   1.000  C  -0.1713229895947039
  C273     1.0000 0.97858  0.95720  0.25000  Biso   1.000  C  -0.1713229895947039
  C274     1.0000 0.95720  0.97862  0.75000  Biso   1.000  C  -0.1713229895947039
  C275     1.0000 0.02138  0.97858  0.75000  Biso   1.000  C  -0.1713229895947039
  C276     1.0000 0.02142  0.04280  0.75000  Biso   1.000  C  -0.1713229895947039
  H79      1.0000 0.07170  0.03580  0.25000  Biso   1.000  H  0.1051782226571782
  H80      1.0000 0.96420  0.03590  0.25000  Biso   1.000  H  0.1051782226571782
  H81      1.0000 0.96410  0.92830  0.25000  Biso   1.000  H  0.1051782226571782
  H82      1.0000 0.92830  0.96420  0.75000  Biso   1.000  H  0.1051782226571782
  H83      1.0000 0.03580  0.96410  0.75000  Biso   1.000  H  0.1051782226571782
  H84      1.0000 0.03590  0.07170  0.75000  Biso   1.000  H  0.1051782226571782
  C277     1.0000 0.02139  0.97861  0.25000  Biso   1.000  C  0.0603401990544515
  C278     1.0000 0.02139  0.04278  0.25000  Biso   1.000  C  0.0603401990544515
  C279     1.0000 0.95722  0.97861  0.25000  Biso   1.000  C  0.0603401990544515
  C280     1.0000 0.97861  0.02139  0.75000  Biso   1.000  C  0.0603401990544515
  C281     1.0000 0.97861  0.95722  0.75000  Biso   1.000  C  0.0603401990544515
  C282     1.0000 0.04278  0.02139  0.75000  Biso   1.000  C  0.0603401990544515
  O69      1.0000 0.31970  0.11040  0.83760  Biso   1.000  O  -0.1271050347428403
  O70      1.0000 0.88960  0.20930  0.83760  Biso   1.000  O  -0.1271050347428403
  O71      1.0000 0.79070  0.68030  0.83760  Biso   1.000  O  -0.1271050347428403
  O72      1.0000 0.88960  0.68030  0.66240  Biso   1.000  O  -0.1271050347428403
  O73      1.0000 0.31970  0.20930  0.66240  Biso   1.000  O  -0.1271050347428403
  O74      1.0000 0.79070  0.11040  0.66240  Biso   1.000  O  -0.1271050347428403
  O75      1.0000 0.68030  0.88960  0.16240  Biso   1.000  O  -0.1271050347428403
  O76      1.0000 0.11040  0.79070  0.16240  Biso   1.000  O  -0.1271050347428403
  O77      1.0000 0.20930  0.31970  0.16240  Biso   1.000  O  -0.1271050347428403
  O78      1.0000 0.11040  0.31970  0.33760  Biso   1.000  O  -0.1271050347428403
  O79      1.0000 0.68030  0.79070  0.33760  Biso   1.000  O  -0.1271050347428403
  O80      1.0000 0.20930  0.88960  0.33760  Biso   1.000  O  -0.1271050347428403
  C283     1.0000 0.36753  0.07066  0.10437  Biso   1.000  C  0.0633315431250821
  C284     1.0000 0.92934  0.29687  0.10437  Biso   1.000  C  0.0633315431250821
  C285     1.0000 0.70313  0.63247  0.10437  Biso   1.000  C  0.0633315431250821
  C286     1.0000 0.92934  0.63247  0.39563  Biso   1.000  C  0.0633315431250821
  C287     1.0000 0.36753  0.29687  0.39563  Biso   1.000  C  0.0633315431250821
  C288     1.0000 0.70313  0.07066  0.39563  Biso   1.000  C  0.0633315431250821
  C289     1.0000 0.63247  0.92934  0.89563  Biso   1.000  C  0.0633315431250821
  C290     1.0000 0.07066  0.70313  0.89563  Biso   1.000  C  0.0633315431250821
  C291     1.0000 0.29687  0.36753  0.89563  Biso   1.000  C  0.0633315431250821
  C292     1.0000 0.07066  0.36753  0.60437  Biso   1.000  C  0.0633315431250821
  C293     1.0000 0.63247  0.70313  0.60437  Biso   1.000  C  0.0633315431250821
  C294     1.0000 0.29687  0.92934  0.60437  Biso   1.000  C  0.0633315431250821
  C295     1.0000 0.35831  0.07645  0.06104  Biso   1.000  C  -0.1556315351600409
  C296     1.0000 0.92355  0.28186  0.06104  Biso   1.000  C  -0.1556315351600409
  C297     1.0000 0.71814  0.64169  0.06104  Biso   1.000  C  -0.1556315351600409
  C298     1.0000 0.92355  0.64169  0.43896  Biso   1.000  C  -0.1556315351600409
  C299     1.0000 0.35831  0.28186  0.43896  Biso   1.000  C  -0.1556315351600409
  C300     1.0000 0.71814  0.07645  0.43896  Biso   1.000  C  -0.1556315351600409
  C301     1.0000 0.64169  0.92355  0.93896  Biso   1.000  C  -0.1556315351600409
  C302     1.0000 0.07645  0.71814  0.93896  Biso   1.000  C  -0.1556315351600409
  C303     1.0000 0.28186  0.35831  0.93896  Biso   1.000  C  -0.1556315351600409
  C304     1.0000 0.07645  0.35831  0.56104  Biso   1.000  C  -0.1556315351600409
  C305     1.0000 0.64169  0.71814  0.56104  Biso   1.000  C  -0.1556315351600409
  C306     1.0000 0.28186  0.92355  0.56104  Biso   1.000  C  -0.1556315351600409
  H85      1.0000 0.33360  0.05670  0.04780  Biso   1.000  H  0.1053016246746301
  H86      1.0000 0.94330  0.27690  0.04780  Biso   1.000  H  0.1053016246746301
  H87      1.0000 0.72310  0.66640  0.04780  Biso   1.000  H  0.1053016246746301
  H88      1.0000 0.94330  0.66640  0.45220  Biso   1.000  H  0.1053016246746301
  H89      1.0000 0.33360  0.27690  0.45220  Biso   1.000  H  0.1053016246746301
  H90      1.0000 0.72310  0.05670  0.45220  Biso   1.000  H  0.1053016246746301
  H91      1.0000 0.66640  0.94330  0.95220  Biso   1.000  H  0.1053016246746301
  H92      1.0000 0.05670  0.72310  0.95220  Biso   1.000  H  0.1053016246746301
  H93      1.0000 0.27690  0.33360  0.95220  Biso   1.000  H  0.1053016246746301
  H94      1.0000 0.05670  0.33360  0.54780  Biso   1.000  H  0.1053016246746301
  H95      1.0000 0.66640  0.72310  0.54780  Biso   1.000  H  0.1053016246746301
  H96      1.0000 0.27690  0.94330  0.54780  Biso   1.000  H  0.1053016246746301
  C307     1.0000 0.38602  0.11179  0.03747  Biso   1.000  C  0.0388356619220405
  C308     1.0000 0.88821  0.27423  0.03747  Biso   1.000  C  0.0388356619220405
  C309     1.0000 0.72577  0.61398  0.03747  Biso   1.000  C  0.0388356619220405
  C310     1.0000 0.88821  0.61398  0.46253  Biso   1.000  C  0.0388356619220405
  C311     1.0000 0.38602  0.27423  0.46253  Biso   1.000  C  0.0388356619220405
  C312     1.0000 0.72577  0.11179  0.46253  Biso   1.000  C  0.0388356619220405
  C313     1.0000 0.61398  0.88821  0.96253  Biso   1.000  C  0.0388356619220405
  C314     1.0000 0.11179  0.72577  0.96253  Biso   1.000  C  0.0388356619220405
  C315     1.0000 0.27423  0.38602  0.96253  Biso   1.000  C  0.0388356619220405
  C316     1.0000 0.11179  0.38602  0.53747  Biso   1.000  C  0.0388356619220405
  C317     1.0000 0.61398  0.72577  0.53747  Biso   1.000  C  0.0388356619220405
  C318     1.0000 0.27423  0.88821  0.53747  Biso   1.000  C  0.0388356619220405
  C319     1.0000 0.42295  0.14135  0.05723  Biso   1.000  C  -0.1571808954268318
  C320     1.0000 0.85865  0.28160  0.05723  Biso   1.000  C  -0.1571808954268318
  C321     1.0000 0.71840  0.57705  0.05723  Biso   1.000  C  -0.1571808954268318
  C322     1.0000 0.85865  0.57705  0.44277  Biso   1.000  C  -0.1571808954268318
  C323     1.0000 0.42295  0.28160  0.44277  Biso   1.000  C  -0.1571808954268318
  C324     1.0000 0.71840  0.14135  0.44277  Biso   1.000  C  -0.1571808954268318
  C325     1.0000 0.57705  0.85865  0.94277  Biso   1.000  C  -0.1571808954268318
  C326     1.0000 0.14135  0.71840  0.94277  Biso   1.000  C  -0.1571808954268318
  C327     1.0000 0.28160  0.42295  0.94277  Biso   1.000  C  -0.1571808954268318
  C328     1.0000 0.14135  0.42295  0.55723  Biso   1.000  C  -0.1571808954268318
  C329     1.0000 0.57705  0.71840  0.55723  Biso   1.000  C  -0.1571808954268318
  C330     1.0000 0.28160  0.85865  0.55723  Biso   1.000  C  -0.1571808954268318
  H97      1.0000 0.44150  0.16500  0.04150  Biso   1.000  H  0.1054283165807204
  H98      1.0000 0.83500  0.27650  0.04150  Biso   1.000  H  0.1054283165807204
  H99      1.0000 0.72350  0.55850  0.04150  Biso   1.000  H  0.1054283165807204
  H100     1.0000 0.83500  0.55850  0.45850  Biso   1.000  H  0.1054283165807204
  H101     1.0000 0.44150  0.27650  0.45850  Biso   1.000  H  0.1054283165807204
  H102     1.0000 0.72350  0.16500  0.45850  Biso   1.000  H  0.1054283165807204
  H103     1.0000 0.55850  0.83500  0.95850  Biso   1.000  H  0.1054283165807204
  H104     1.0000 0.16500  0.72350  0.95850  Biso   1.000  H  0.1054283165807204
  H105     1.0000 0.27650  0.44150  0.95850  Biso   1.000  H  0.1054283165807204
  H106     1.0000 0.16500  0.44150  0.54150  Biso   1.000  H  0.1054283165807204
  H107     1.0000 0.55850  0.72350  0.54150  Biso   1.000  H  0.1054283165807204
  H108     1.0000 0.27650  0.83500  0.54150  Biso   1.000  H  0.1054283165807204
  C331     1.0000 0.43216  0.13557  0.10056  Biso   1.000  C  0.0632460179957943
  C332     1.0000 0.86443  0.29659  0.10056  Biso   1.000  C  0.0632460179957943
  C333     1.0000 0.70341  0.56784  0.10056  Biso   1.000  C  0.0632460179957943
  C334     1.0000 0.86443  0.56784  0.39944  Biso   1.000  C  0.0632460179957943
  C335     1.0000 0.43216  0.29659  0.39944  Biso   1.000  C  0.0632460179957943
  C336     1.0000 0.70341  0.13557  0.39944  Biso   1.000  C  0.0632460179957943
  C337     1.0000 0.56784  0.86443  0.89944  Biso   1.000  C  0.0632460179957943
  C338     1.0000 0.13557  0.70341  0.89944  Biso   1.000  C  0.0632460179957943
  C339     1.0000 0.29659  0.43216  0.89944  Biso   1.000  C  0.0632460179957943
  C340     1.0000 0.13557  0.43216  0.60056  Biso   1.000  C  0.0632460179957943
  C341     1.0000 0.56784  0.70341  0.60056  Biso   1.000  C  0.0632460179957943
  C342     1.0000 0.29659  0.86443  0.60056  Biso   1.000  C  0.0632460179957943
  C343     1.0000 0.40446  0.10023  0.12413  Biso   1.000  C  -0.1545749273958509
  C344     1.0000 0.89977  0.30423  0.12413  Biso   1.000  C  -0.1545749273958509
  C345     1.0000 0.69577  0.59554  0.12413  Biso   1.000  C  -0.1545749273958509
  C346     1.0000 0.89977  0.59554  0.37587  Biso   1.000  C  -0.1545749273958509
  C347     1.0000 0.40446  0.30423  0.37587  Biso   1.000  C  -0.1545749273958509
  C348     1.0000 0.69577  0.10023  0.37587  Biso   1.000  C  -0.1545749273958509
  C349     1.0000 0.59554  0.89977  0.87587  Biso   1.000  C  -0.1545749273958509
  C350     1.0000 0.10023  0.69577  0.87587  Biso   1.000  C  -0.1545749273958509
  C351     1.0000 0.30423  0.40446  0.87587  Biso   1.000  C  -0.1545749273958509
  C352     1.0000 0.10023  0.40446  0.62413  Biso   1.000  C  -0.1545749273958509
  C353     1.0000 0.59554  0.69577  0.62413  Biso   1.000  C  -0.1545749273958509
  C354     1.0000 0.30423  0.89977  0.62413  Biso   1.000  C  -0.1545749273958509
  H109     1.0000 0.41060  0.09640  0.15310  Biso   1.000  H  0.1053571688630557
  H110     1.0000 0.90360  0.31420  0.15310  Biso   1.000  H  0.1053571688630557
  H111     1.0000 0.68580  0.58940  0.15310  Biso   1.000  H  0.1053571688630557
  H112     1.0000 0.90360  0.58940  0.34690  Biso   1.000  H  0.1053571688630557
  H113     1.0000 0.41060  0.31420  0.34690  Biso   1.000  H  0.1053571688630557
  H114     1.0000 0.68580  0.09640  0.34690  Biso   1.000  H  0.1053571688630557
  H115     1.0000 0.58940  0.90360  0.84690  Biso   1.000  H  0.1053571688630557
  H116     1.0000 0.09640  0.68580  0.84690  Biso   1.000  H  0.1053571688630557
  H117     1.0000 0.31420  0.41060  0.84690  Biso   1.000  H  0.1053571688630557
  H118     1.0000 0.09640  0.41060  0.65310  Biso   1.000  H  0.1053571688630557
  H119     1.0000 0.58940  0.68580  0.65310  Biso   1.000  H  0.1053571688630557
  H120     1.0000 0.31420  0.90360  0.65310  Biso   1.000  H  0.1053571688630557
  O81      1.0000 0.26050  0.90560  0.22340  Biso   1.000  O  -0.1280751462658404
  O82      1.0000 0.09440  0.35490  0.22340  Biso   1.000  O  -0.1280751462658404
  O83      1.0000 0.64510  0.73950  0.22340  Biso   1.000  O  -0.1280751462658404
  O84      1.0000 0.09440  0.73950  0.27660  Biso   1.000  O  -0.1280751462658404
  O85      1.0000 0.26050  0.35490  0.27660  Biso   1.000  O  -0.1280751462658404
  O86      1.0000 0.64510  0.90560  0.27660  Biso   1.000  O  -0.1280751462658404
  O87      1.0000 0.73950  0.09440  0.77660  Biso   1.000  O  -0.1280751462658404
  O88      1.0000 0.90560  0.64510  0.77660  Biso   1.000  O  -0.1280751462658404
  O89      1.0000 0.35490  0.26050  0.77660  Biso   1.000  O  -0.1280751462658404
  O90      1.0000 0.90560  0.26050  0.72340  Biso   1.000  O  -0.1280751462658404
  O91      1.0000 0.73950  0.64510  0.72340  Biso   1.000  O  -0.1280751462658404
  O92      1.0000 0.35490  0.09440  0.72340  Biso   1.000  O  -0.1280751462658404
  O93      1.0000 0.36560  0.17700  0.84700  Biso   1.000  O  -0.2479468139571534
  O94      1.0000 0.82300  0.18860  0.84700  Biso   1.000  O  -0.2479468139571534
  O95      1.0000 0.81140  0.63440  0.84700  Biso   1.000  O  -0.2479468139571534
  O96      1.0000 0.82300  0.63440  0.65300  Biso   1.000  O  -0.2479468139571534
  O97      1.0000 0.36560  0.18860  0.65300  Biso   1.000  O  -0.2479468139571534
  O98      1.0000 0.81140  0.17700  0.65300  Biso   1.000  O  -0.2479468139571534
  O99      1.0000 0.63440  0.82300  0.15300  Biso   1.000  O  -0.2479468139571534
  O100     1.0000 0.17700  0.81140  0.15300  Biso   1.000  O  -0.2479468139571534
  O101     1.0000 0.18860  0.36560  0.15300  Biso   1.000  O  -0.2479468139571534
  O102     1.0000 0.17700  0.36560  0.34700  Biso   1.000  O  -0.2479468139571534
  O103     1.0000 0.63440  0.81140  0.34700  Biso   1.000  O  -0.2479468139571534
  O104     1.0000 0.18860  0.82300  0.34700  Biso   1.000  O  -0.2479468139571534
  O105     1.0000 0.36820  0.13070  0.82370  Biso   1.000  O  -0.2314115158500524
  O106     1.0000 0.86930  0.23750  0.82370  Biso   1.000  O  -0.2314115158500524
  O107     1.0000 0.76250  0.63180  0.82370  Biso   1.000  O  -0.2314115158500524
  O108     1.0000 0.86930  0.63180  0.67630  Biso   1.000  O  -0.2314115158500524
  O109     1.0000 0.36820  0.23750  0.67630  Biso   1.000  O  -0.2314115158500524
  O110     1.0000 0.76250  0.13070  0.67630  Biso   1.000  O  -0.2314115158500524
  O111     1.0000 0.63180  0.86930  0.17630  Biso   1.000  O  -0.2314115158500524
  O112     1.0000 0.13070  0.76250  0.17630  Biso   1.000  O  -0.2314115158500524
  O113     1.0000 0.23750  0.36820  0.17630  Biso   1.000  O  -0.2314115158500524
  O114     1.0000 0.13070  0.36820  0.32370  Biso   1.000  O  -0.2314115158500524
  O115     1.0000 0.63180  0.76250  0.32370  Biso   1.000  O  -0.2314115158500524
  O116     1.0000 0.23750  0.86930  0.32370  Biso   1.000  O  -0.2314115158500524
  C355     1.0000 0.11220  0.88780  0.25000  Biso   1.000  C  0.4219369003586816
  C356     1.0000 0.11220  0.22440  0.25000  Biso   1.000  C  0.4219369003586816
  C357     1.0000 0.77560  0.88780  0.25000  Biso   1.000  C  0.4219369003586816
  C358     1.0000 0.88780  0.11220  0.75000  Biso   1.000  C  0.4219369003586816
  C359     1.0000 0.88780  0.77560  0.75000  Biso   1.000  C  0.4219369003586816
  C360     1.0000 0.22440  0.11220  0.75000  Biso   1.000  C  0.4219369003586816
  C361     1.0000 0.30420  0.74920  0.22780  Biso   1.000  C  -0.1685147134354065
  C362     1.0000 0.25080  0.55500  0.22780  Biso   1.000  C  -0.1685147134354065
  C363     1.0000 0.44500  0.69580  0.22780  Biso   1.000  C  -0.1685147134354065
  C364     1.0000 0.25080  0.69580  0.27220  Biso   1.000  C  -0.1685147134354065
  C365     1.0000 0.30420  0.55500  0.27220  Biso   1.000  C  -0.1685147134354065
  C366     1.0000 0.44500  0.74920  0.27220  Biso   1.000  C  -0.1685147134354065
  C367     1.0000 0.69580  0.25080  0.77220  Biso   1.000  C  -0.1685147134354065
  C368     1.0000 0.74920  0.44500  0.77220  Biso   1.000  C  -0.1685147134354065
  C369     1.0000 0.55500  0.30420  0.77220  Biso   1.000  C  -0.1685147134354065
  C370     1.0000 0.74920  0.30420  0.72780  Biso   1.000  C  -0.1685147134354065
  C371     1.0000 0.69580  0.44500  0.72780  Biso   1.000  C  -0.1685147134354065
  C372     1.0000 0.55500  0.25080  0.72780  Biso   1.000  C  -0.1685147134354065
  H121     1.0000 0.32950  0.76020  0.21300  Biso   1.000  H  0.1052254681727350
  H122     1.0000 0.23980  0.56930  0.21300  Biso   1.000  H  0.1052254681727350
  H123     1.0000 0.43070  0.67050  0.21300  Biso   1.000  H  0.1052254681727350
  H124     1.0000 0.23980  0.67050  0.28700  Biso   1.000  H  0.1052254681727350
  H125     1.0000 0.32950  0.56930  0.28700  Biso   1.000  H  0.1052254681727350
  H126     1.0000 0.43070  0.76020  0.28700  Biso   1.000  H  0.1052254681727350
  H127     1.0000 0.67050  0.23980  0.78700  Biso   1.000  H  0.1052254681727350
  H128     1.0000 0.76020  0.43070  0.78700  Biso   1.000  H  0.1052254681727350
  H129     1.0000 0.56930  0.32950  0.78700  Biso   1.000  H  0.1052254681727350
  H130     1.0000 0.76020  0.32950  0.71300  Biso   1.000  H  0.1052254681727350
  H131     1.0000 0.67050  0.43070  0.71300  Biso   1.000  H  0.1052254681727350
  H132     1.0000 0.56930  0.23980  0.71300  Biso   1.000  H  0.1052254681727350
  C373     1.0000 0.52360  0.23820  0.13390  Biso   1.000  C  0.2729980522177872
  C374     1.0000 0.76180  0.28540  0.13390  Biso   1.000  C  0.2729980522177872
  C375     1.0000 0.71460  0.47640  0.13390  Biso   1.000  C  0.2729980522177872
  C376     1.0000 0.76180  0.47640  0.36610  Biso   1.000  C  0.2729980522177872
  C377     1.0000 0.52360  0.28540  0.36610  Biso   1.000  C  0.2729980522177872
  C378     1.0000 0.71460  0.23820  0.36610  Biso   1.000  C  0.2729980522177872
  C379     1.0000 0.47640  0.76180  0.86610  Biso   1.000  C  0.2729980522177872
  C380     1.0000 0.23820  0.71460  0.86610  Biso   1.000  C  0.2729980522177872
  C381     1.0000 0.28540  0.52360  0.86610  Biso   1.000  C  0.2729980522177872
  C382     1.0000 0.23820  0.52360  0.63390  Biso   1.000  C  0.2729980522177872
  C383     1.0000 0.47640  0.71460  0.63390  Biso   1.000  C  0.2729980522177872
  C384     1.0000 0.28540  0.76180  0.63390  Biso   1.000  C  0.2729980522177872
  C385     1.0000 0.52890  0.18370  0.17060  Biso   1.000  C  0.3129826844625599
  C386     1.0000 0.81630  0.34520  0.17060  Biso   1.000  C  0.3129826844625599
  C387     1.0000 0.65480  0.47110  0.17060  Biso   1.000  C  0.3129826844625599
  C388     1.0000 0.81630  0.47110  0.32940  Biso   1.000  C  0.3129826844625599
  C389     1.0000 0.52890  0.34520  0.32940  Biso   1.000  C  0.3129826844625599
  C390     1.0000 0.65480  0.18370  0.32940  Biso   1.000  C  0.3129826844625599
  C391     1.0000 0.47110  0.81630  0.82940  Biso   1.000  C  0.3129826844625599
  C392     1.0000 0.18370  0.65480  0.82940  Biso   1.000  C  0.3129826844625599
  C393     1.0000 0.34520  0.52890  0.82940  Biso   1.000  C  0.3129826844625599
  C394     1.0000 0.18370  0.52890  0.67060  Biso   1.000  C  0.3129826844625599
  C395     1.0000 0.47110  0.65480  0.67060  Biso   1.000  C  0.3129826844625599
  C396     1.0000 0.34520  0.81630  0.67060  Biso   1.000  C  0.3129826844625599
  O117     1.0000 0.21160  0.90640  0.18180  Biso   1.000  O  -0.2465658683353985
  O118     1.0000 0.09360  0.30520  0.18180  Biso   1.000  O  -0.2465658683353985
  O119     1.0000 0.69480  0.78840  0.18180  Biso   1.000  O  -0.2465658683353985
  O120     1.0000 0.09360  0.78840  0.31820  Biso   1.000  O  -0.2465658683353985
  O121     1.0000 0.21160  0.30520  0.31820  Biso   1.000  O  -0.2465658683353985
  O122     1.0000 0.69480  0.90640  0.31820  Biso   1.000  O  -0.2465658683353985
  O123     1.0000 0.78840  0.09360  0.81820  Biso   1.000  O  -0.2465658683353985
  O124     1.0000 0.90640  0.69480  0.81820  Biso   1.000  O  -0.2465658683353985
  O125     1.0000 0.30520  0.21160  0.81820  Biso   1.000  O  -0.2465658683353985
  O126     1.0000 0.90640  0.21160  0.68180  Biso   1.000  O  -0.2465658683353985
  O127     1.0000 0.78840  0.69480  0.68180  Biso   1.000  O  -0.2465658683353985
  O128     1.0000 0.30520  0.09360  0.68180  Biso   1.000  O  -0.2465658683353985
  C397     1.0000 0.28850  0.95990  0.13130  Biso   1.000  C  -0.0022372612692051
  C398     1.0000 0.04010  0.32860  0.13130  Biso   1.000  C  -0.0022372612692051
  C399     1.0000 0.67140  0.71150  0.13130  Biso   1.000  C  -0.0022372612692051
  C400     1.0000 0.04010  0.71150  0.36870  Biso   1.000  C  -0.0022372612692051
  C401     1.0000 0.28850  0.32860  0.36870  Biso   1.000  C  -0.0022372612692051
  C402     1.0000 0.67140  0.95990  0.36870  Biso   1.000  C  -0.0022372612692051
  C403     1.0000 0.71150  0.04010  0.86870  Biso   1.000  C  -0.0022372612692051
  C404     1.0000 0.95990  0.67140  0.86870  Biso   1.000  C  -0.0022372612692051
  C405     1.0000 0.32860  0.28850  0.86870  Biso   1.000  C  -0.0022372612692051
  C406     1.0000 0.95990  0.28850  0.63130  Biso   1.000  C  -0.0022372612692051
  C407     1.0000 0.71150  0.67140  0.63130  Biso   1.000  C  -0.0022372612692051
  C408     1.0000 0.32860  0.04010  0.63130  Biso   1.000  C  -0.0022372612692051
  C409     1.0000 0.49270  0.15400  0.15100  Biso   1.000  C  -0.1720079800092582
  C410     1.0000 0.84600  0.33870  0.15100  Biso   1.000  C  -0.1720079800092582
  C411     1.0000 0.66130  0.50730  0.15100  Biso   1.000  C  -0.1720079800092582
  C412     1.0000 0.84600  0.50730  0.34900  Biso   1.000  C  -0.1720079800092582
  C413     1.0000 0.49270  0.33870  0.34900  Biso   1.000  C  -0.1720079800092582
  C414     1.0000 0.66130  0.15400  0.34900  Biso   1.000  C  -0.1720079800092582
  C415     1.0000 0.50730  0.84600  0.84900  Biso   1.000  C  -0.1720079800092582
  C416     1.0000 0.15400  0.66130  0.84900  Biso   1.000  C  -0.1720079800092582
  C417     1.0000 0.33870  0.49270  0.84900  Biso   1.000  C  -0.1720079800092582
  C418     1.0000 0.15400  0.49270  0.65100  Biso   1.000  C  -0.1720079800092582
  C419     1.0000 0.50730  0.66130  0.65100  Biso   1.000  C  -0.1720079800092582
  C420     1.0000 0.33870  0.84600  0.65100  Biso   1.000  C  -0.1720079800092582
  H133     1.0000 0.48240  0.12590  0.15680  Biso   1.000  H  0.1051303618421168
  H134     1.0000 0.87410  0.35650  0.15680  Biso   1.000  H  0.1051303618421168
  H135     1.0000 0.64350  0.51760  0.15680  Biso   1.000  H  0.1051303618421168
  H136     1.0000 0.87410  0.51760  0.34320  Biso   1.000  H  0.1051303618421168
  H137     1.0000 0.48240  0.35650  0.34320  Biso   1.000  H  0.1051303618421168
  H138     1.0000 0.64350  0.12590  0.34320  Biso   1.000  H  0.1051303618421168
  H139     1.0000 0.51760  0.87410  0.84320  Biso   1.000  H  0.1051303618421168
  H140     1.0000 0.12590  0.64350  0.84320  Biso   1.000  H  0.1051303618421168
  H141     1.0000 0.35650  0.48240  0.84320  Biso   1.000  H  0.1051303618421168
  H142     1.0000 0.12590  0.48240  0.65680  Biso   1.000  H  0.1051303618421168
  H143     1.0000 0.51760  0.64350  0.65680  Biso   1.000  H  0.1051303618421168
  H144     1.0000 0.35650  0.87410  0.65680  Biso   1.000  H  0.1051303618421168
  C421     1.0000 0.08130  0.96940  0.27540  Biso   1.000  C  -0.1228404621841904
  C422     1.0000 0.03060  0.11190  0.27540  Biso   1.000  C  -0.1228404621841904
  C423     1.0000 0.88810  0.91870  0.27540  Biso   1.000  C  -0.1228404621841904
  C424     1.0000 0.03060  0.91870  0.22460  Biso   1.000  C  -0.1228404621841904
  C425     1.0000 0.08130  0.11190  0.22460  Biso   1.000  C  -0.1228404621841904
  C426     1.0000 0.88810  0.96940  0.22460  Biso   1.000  C  -0.1228404621841904
  C427     1.0000 0.91870  0.03060  0.72460  Biso   1.000  C  -0.1228404621841904
  C428     1.0000 0.96940  0.88810  0.72460  Biso   1.000  C  -0.1228404621841904
  C429     1.0000 0.11190  0.08130  0.72460  Biso   1.000  C  -0.1228404621841904
  C430     1.0000 0.96940  0.08130  0.77540  Biso   1.000  C  -0.1228404621841904
  C431     1.0000 0.91870  0.88810  0.77540  Biso   1.000  C  -0.1228404621841904
  C432     1.0000 0.11190  0.03060  0.77540  Biso   1.000  C  -0.1228404621841904
  H145     1.0000 0.09100  0.99350  0.29240  Biso   1.000  H  0.1022200017176427
  H146     1.0000 0.00650  0.09750  0.29240  Biso   1.000  H  0.1022200017176427
  H147     1.0000 0.90250  0.90900  0.29240  Biso   1.000  H  0.1022200017176427
  H148     1.0000 0.00650  0.90900  0.20760  Biso   1.000  H  0.1022200017176427
  H149     1.0000 0.09100  0.09750  0.20760  Biso   1.000  H  0.1022200017176427
  H150     1.0000 0.90250  0.99350  0.20760  Biso   1.000  H  0.1022200017176427
  H151     1.0000 0.90900  0.00650  0.70760  Biso   1.000  H  0.1022200017176427
  H152     1.0000 0.99350  0.90250  0.70760  Biso   1.000  H  0.1022200017176427
  H153     1.0000 0.09750  0.09100  0.70760  Biso   1.000  H  0.1022200017176427
  H154     1.0000 0.99350  0.09100  0.79240  Biso   1.000  H  0.1022200017176427
  H155     1.0000 0.90900  0.90250  0.79240  Biso   1.000  H  0.1022200017176427
  H156     1.0000 0.09750  0.00650  0.79240  Biso   1.000  H  0.1022200017176427
  C433     1.0000 0.10350  0.94780  0.27560  Biso   1.000  C  0.1800198502496143
  C434     1.0000 0.05220  0.15570  0.27560  Biso   1.000  C  0.1800198502496143
  C435     1.0000 0.84430  0.89650  0.27560  Biso   1.000  C  0.1800198502496143
  C436     1.0000 0.05220  0.89650  0.22440  Biso   1.000  C  0.1800198502496143
  C437     1.0000 0.10350  0.15570  0.22440  Biso   1.000  C  0.1800198502496143
  C438     1.0000 0.84430  0.94780  0.22440  Biso   1.000  C  0.1800198502496143
  C439     1.0000 0.89650  0.05220  0.72440  Biso   1.000  C  0.1800198502496143
  C440     1.0000 0.94780  0.84430  0.72440  Biso   1.000  C  0.1800198502496143
  C441     1.0000 0.15570  0.10350  0.72440  Biso   1.000  C  0.1800198502496143
  C442     1.0000 0.94780  0.10350  0.77560  Biso   1.000  C  0.1800198502496143
  C443     1.0000 0.89650  0.84430  0.77560  Biso   1.000  C  0.1800198502496143
  C444     1.0000 0.15570  0.05220  0.77560  Biso   1.000  C  0.1800198502496143
  C445     1.0000 0.31570  0.99580  0.10800  Biso   1.000  C  -0.1187753028379092
  C446     1.0000 0.00420  0.31990  0.10800  Biso   1.000  C  -0.1187753028379092
  C447     1.0000 0.68010  0.68430  0.10800  Biso   1.000  C  -0.1187753028379092
  C448     1.0000 0.00420  0.68430  0.39200  Biso   1.000  C  -0.1187753028379092
  C449     1.0000 0.31570  0.31990  0.39200  Biso   1.000  C  -0.1187753028379092
  C450     1.0000 0.68010  0.99580  0.39200  Biso   1.000  C  -0.1187753028379092
  C451     1.0000 0.68430  0.00420  0.89200  Biso   1.000  C  -0.1187753028379092
  C452     1.0000 0.99580  0.68010  0.89200  Biso   1.000  C  -0.1187753028379092
  C453     1.0000 0.31990  0.31570  0.89200  Biso   1.000  C  -0.1187753028379092
  C454     1.0000 0.99580  0.31570  0.60800  Biso   1.000  C  -0.1187753028379092
  C455     1.0000 0.68430  0.68010  0.60800  Biso   1.000  C  -0.1187753028379092
  C456     1.0000 0.31990  0.00420  0.60800  Biso   1.000  C  -0.1187753028379092
  H157     1.0000 0.31920  0.99430  0.07750  Biso   1.000  H  0.1046297080372529
  H158     1.0000 0.00570  0.32490  0.07750  Biso   1.000  H  0.1046297080372529
  H159     1.0000 0.67510  0.68080  0.07750  Biso   1.000  H  0.1046297080372529
  H160     1.0000 0.00570  0.68080  0.42250  Biso   1.000  H  0.1046297080372529
  H161     1.0000 0.31920  0.32490  0.42250  Biso   1.000  H  0.1046297080372529
  H162     1.0000 0.67510  0.99430  0.42250  Biso   1.000  H  0.1046297080372529
  H163     1.0000 0.68080  0.00570  0.92250  Biso   1.000  H  0.1046297080372529
  H164     1.0000 0.99430  0.67510  0.92250  Biso   1.000  H  0.1046297080372529
  H165     1.0000 0.32490  0.31920  0.92250  Biso   1.000  H  0.1046297080372529
  H166     1.0000 0.99430  0.31920  0.57750  Biso   1.000  H  0.1046297080372529
  H167     1.0000 0.68080  0.67510  0.57750  Biso   1.000  H  0.1046297080372529
  H168     1.0000 0.32490  0.00570  0.57750  Biso   1.000  H  0.1046297080372529
  O129     1.0000 0.58190  0.29390  0.19110  Biso   1.000  O  -0.2353047828025113
  O130     1.0000 0.70610  0.28800  0.19110  Biso   1.000  O  -0.2353047828025113
  O131     1.0000 0.71200  0.41810  0.19110  Biso   1.000  O  -0.2353047828025113
  O132     1.0000 0.70610  0.41810  0.30890  Biso   1.000  O  -0.2353047828025113
  O133     1.0000 0.58190  0.28800  0.30890  Biso   1.000  O  -0.2353047828025113
  O134     1.0000 0.71200  0.29390  0.30890  Biso   1.000  O  -0.2353047828025113
  O135     1.0000 0.41810  0.70610  0.80890  Biso   1.000  O  -0.2353047828025113
  O136     1.0000 0.29390  0.71200  0.80890  Biso   1.000  O  -0.2353047828025113
  O137     1.0000 0.28800  0.58190  0.80890  Biso   1.000  O  -0.2353047828025113
  O138     1.0000 0.29390  0.58190  0.69110  Biso   1.000  O  -0.2353047828025113
  O139     1.0000 0.41810  0.71200  0.69110  Biso   1.000  O  -0.2353047828025113
  O140     1.0000 0.28800  0.70610  0.69110  Biso   1.000  O  -0.2353047828025113
  C457     1.0000 0.33480  0.10650  0.97830  Biso   1.000  C  -0.1516954399900831
  C458     1.0000 0.89350  0.22830  0.97830  Biso   1.000  C  -0.1516954399900831
  C459     1.0000 0.77170  0.66520  0.97830  Biso   1.000  C  -0.1516954399900831
  C460     1.0000 0.89350  0.66520  0.52170  Biso   1.000  C  -0.1516954399900831
  C461     1.0000 0.33480  0.22830  0.52170  Biso   1.000  C  -0.1516954399900831
  C462     1.0000 0.77170  0.10650  0.52170  Biso   1.000  C  -0.1516954399900831
  C463     1.0000 0.66520  0.89350  0.02170  Biso   1.000  C  -0.1516954399900831
  C464     1.0000 0.10650  0.77170  0.02170  Biso   1.000  C  -0.1516954399900831
  C465     1.0000 0.22830  0.33480  0.02170  Biso   1.000  C  -0.1516954399900831
  C466     1.0000 0.10650  0.33480  0.47830  Biso   1.000  C  -0.1516954399900831
  C467     1.0000 0.66520  0.77170  0.47830  Biso   1.000  C  -0.1516954399900831
  C468     1.0000 0.22830  0.89350  0.47830  Biso   1.000  C  -0.1516954399900831
  H169     1.0000 0.31410  0.09670  0.99990  Biso   1.000  H  0.1048319759355358
  H170     1.0000 0.90330  0.21740  0.99990  Biso   1.000  H  0.1048319759355358
  H171     1.0000 0.78260  0.68590  0.99990  Biso   1.000  H  0.1048319759355358
  H172     1.0000 0.90330  0.68590  0.50010  Biso   1.000  H  0.1048319759355358
  H173     1.0000 0.31410  0.21740  0.50010  Biso   1.000  H  0.1048319759355358
  H174     1.0000 0.78260  0.09670  0.50010  Biso   1.000  H  0.1048319759355358
  H175     1.0000 0.68590  0.90330  0.00010  Biso   1.000  H  0.1048319759355358
  H176     1.0000 0.09670  0.78260  0.00010  Biso   1.000  H  0.1048319759355358
  H177     1.0000 0.21740  0.31410  0.00010  Biso   1.000  H  0.1048319759355358
  H178     1.0000 0.09670  0.31410  0.49990  Biso   1.000  H  0.1048319759355358
  H179     1.0000 0.68590  0.78260  0.49990  Biso   1.000  H  0.1048319759355358
  H180     1.0000 0.21740  0.90330  0.49990  Biso   1.000  H  0.1048319759355358
  C469     1.0000 0.32530  0.11030  0.93440  Biso   1.000  C  0.2661193654477161
  C470     1.0000 0.88970  0.21500  0.93440  Biso   1.000  C  0.2661193654477161
  C471     1.0000 0.78500  0.67470  0.93440  Biso   1.000  C  0.2661193654477161
  C472     1.0000 0.88970  0.67470  0.56560  Biso   1.000  C  0.2661193654477161
  C473     1.0000 0.32530  0.21500  0.56560  Biso   1.000  C  0.2661193654477161
  C474     1.0000 0.78500  0.11030  0.56560  Biso   1.000  C  0.2661193654477161
  C475     1.0000 0.67470  0.88970  0.06560  Biso   1.000  C  0.2661193654477161
  C476     1.0000 0.11030  0.78500  0.06560  Biso   1.000  C  0.2661193654477161
  C477     1.0000 0.21500  0.32530  0.06560  Biso   1.000  C  0.2661193654477161
  C478     1.0000 0.11030  0.32530  0.43440  Biso   1.000  C  0.2661193654477161
  C479     1.0000 0.67470  0.78500  0.43440  Biso   1.000  C  0.2661193654477161
  C480     1.0000 0.21500  0.88970  0.43440  Biso   1.000  C  0.2661193654477161
  C481     1.0000 0.30010  0.99970  0.19920  Biso   1.000  C  0.2063205270362573
  C482     1.0000 0.00030  0.30040  0.19920  Biso   1.000  C  0.2063205270362573
  C483     1.0000 0.69960  0.69990  0.19920  Biso   1.000  C  0.2063205270362573
  C484     1.0000 0.00030  0.69990  0.30080  Biso   1.000  C  0.2063205270362573
  C485     1.0000 0.30010  0.30040  0.30080  Biso   1.000  C  0.2063205270362573
  C486     1.0000 0.69960  0.99970  0.30080  Biso   1.000  C  0.2063205270362573
  C487     1.0000 0.69990  0.00030  0.80080  Biso   1.000  C  0.2063205270362573
  C488     1.0000 0.99970  0.69960  0.80080  Biso   1.000  C  0.2063205270362573
  C489     1.0000 0.30040  0.30010  0.80080  Biso   1.000  C  0.2063205270362573
  C490     1.0000 0.99970  0.30010  0.69920  Biso   1.000  C  0.2063205270362573
  C491     1.0000 0.69990  0.69960  0.69920  Biso   1.000  C  0.2063205270362573
  C492     1.0000 0.30040  0.00030  0.69920  Biso   1.000  C  0.2063205270362573
  C493     1.0000 0.32700  0.03620  0.17490  Biso   1.000  C  -0.1287354187900180
  C494     1.0000 0.96380  0.29080  0.17490  Biso   1.000  C  -0.1287354187900180
  C495     1.0000 0.70920  0.67300  0.17490  Biso   1.000  C  -0.1287354187900180
  C496     1.0000 0.96380  0.67300  0.32510  Biso   1.000  C  -0.1287354187900180
  C497     1.0000 0.32700  0.29080  0.32510  Biso   1.000  C  -0.1287354187900180
  C498     1.0000 0.70920  0.03620  0.32510  Biso   1.000  C  -0.1287354187900180
  C499     1.0000 0.67300  0.96380  0.82510  Biso   1.000  C  -0.1287354187900180
  C500     1.0000 0.03620  0.70920  0.82510  Biso   1.000  C  -0.1287354187900180
  C501     1.0000 0.29080  0.32700  0.82510  Biso   1.000  C  -0.1287354187900180
  C502     1.0000 0.03620  0.32700  0.67490  Biso   1.000  C  -0.1287354187900180
  C503     1.0000 0.67300  0.70920  0.67490  Biso   1.000  C  -0.1287354187900180
  C504     1.0000 0.29080  0.96380  0.67490  Biso   1.000  C  -0.1287354187900180
  H181     1.0000 0.33820  0.06220  0.18840  Biso   1.000  H  0.1033588845103467
  H182     1.0000 0.93780  0.27600  0.18840  Biso   1.000  H  0.1033588845103467
  H183     1.0000 0.72400  0.66180  0.18840  Biso   1.000  H  0.1033588845103467
  H184     1.0000 0.93780  0.66180  0.31160  Biso   1.000  H  0.1033588845103467
  H185     1.0000 0.33820  0.27600  0.31160  Biso   1.000  H  0.1033588845103467
  H186     1.0000 0.72400  0.06220  0.31160  Biso   1.000  H  0.1033588845103467
  H187     1.0000 0.66180  0.93780  0.81160  Biso   1.000  H  0.1033588845103467
  H188     1.0000 0.06220  0.72400  0.81160  Biso   1.000  H  0.1033588845103467
  H189     1.0000 0.27600  0.33820  0.81160  Biso   1.000  H  0.1033588845103467
  H190     1.0000 0.06220  0.33820  0.68840  Biso   1.000  H  0.1033588845103467
  H191     1.0000 0.66180  0.72400  0.68840  Biso   1.000  H  0.1033588845103467
  H192     1.0000 0.27600  0.93780  0.68840  Biso   1.000  H  0.1033588845103467
  C505     1.0000 0.40580  0.13090  0.95670  Biso   1.000  C  -0.1307854762734112
  C506     1.0000 0.86910  0.27490  0.95670  Biso   1.000  C  -0.1307854762734112
  C507     1.0000 0.72510  0.59420  0.95670  Biso   1.000  C  -0.1307854762734112
  C508     1.0000 0.86910  0.59420  0.54330  Biso   1.000  C  -0.1307854762734112
  C509     1.0000 0.40580  0.27490  0.54330  Biso   1.000  C  -0.1307854762734112
  C510     1.0000 0.72510  0.13090  0.54330  Biso   1.000  C  -0.1307854762734112
  C511     1.0000 0.59420  0.86910  0.04330  Biso   1.000  C  -0.1307854762734112
  C512     1.0000 0.13090  0.72510  0.04330  Biso   1.000  C  -0.1307854762734112
  C513     1.0000 0.27490  0.40580  0.04330  Biso   1.000  C  -0.1307854762734112
  C514     1.0000 0.13090  0.40580  0.45670  Biso   1.000  C  -0.1307854762734112
  C515     1.0000 0.59420  0.72510  0.45670  Biso   1.000  C  -0.1307854762734112
  C516     1.0000 0.27490  0.86910  0.45670  Biso   1.000  C  -0.1307854762734112
  H193     1.0000 0.43260  0.13680  0.96380  Biso   1.000  H  0.1050761753903350
  H194     1.0000 0.86320  0.29580  0.96380  Biso   1.000  H  0.1050761753903350
  H195     1.0000 0.70420  0.56740  0.96380  Biso   1.000  H  0.1050761753903350
  H196     1.0000 0.86320  0.56740  0.53620  Biso   1.000  H  0.1050761753903350
  H197     1.0000 0.43260  0.29580  0.53620  Biso   1.000  H  0.1050761753903350
  H198     1.0000 0.70420  0.13680  0.53620  Biso   1.000  H  0.1050761753903350
  H199     1.0000 0.56740  0.86320  0.03620  Biso   1.000  H  0.1050761753903350
  H200     1.0000 0.13680  0.70420  0.03620  Biso   1.000  H  0.1050761753903350
  H201     1.0000 0.29580  0.43260  0.03620  Biso   1.000  H  0.1050761753903350
  H202     1.0000 0.13680  0.43260  0.46380  Biso   1.000  H  0.1050761753903350
  H203     1.0000 0.56740  0.70420  0.46380  Biso   1.000  H  0.1050761753903350
  H204     1.0000 0.29580  0.86320  0.46380  Biso   1.000  H  0.1050761753903350
  C517     1.0000 0.39600  0.13530  0.91250  Biso   1.000  C  0.2104138490432479
  C518     1.0000 0.86470  0.26070  0.91250  Biso   1.000  C  0.2104138490432479
  C519     1.0000 0.73930  0.60400  0.91250  Biso   1.000  C  0.2104138490432479
  C520     1.0000 0.86470  0.60400  0.58750  Biso   1.000  C  0.2104138490432479
  C521     1.0000 0.39600  0.26070  0.58750  Biso   1.000  C  0.2104138490432479
  C522     1.0000 0.73930  0.13530  0.58750  Biso   1.000  C  0.2104138490432479
  C523     1.0000 0.60400  0.86470  0.08750  Biso   1.000  C  0.2104138490432479
  C524     1.0000 0.13530  0.73930  0.08750  Biso   1.000  C  0.2104138490432479
  C525     1.0000 0.26070  0.39600  0.08750  Biso   1.000  C  0.2104138490432479
  C526     1.0000 0.13530  0.39600  0.41250  Biso   1.000  C  0.2104138490432479
  C527     1.0000 0.60400  0.73930  0.41250  Biso   1.000  C  0.2104138490432479
  C528     1.0000 0.26070  0.86470  0.41250  Biso   1.000  C  0.2104138490432479
  C529     1.0000 0.48620  0.20830  0.11450  Biso   1.000  C  -0.1623964138200850
  C530     1.0000 0.79170  0.27790  0.11450  Biso   1.000  C  -0.1623964138200850
  C531     1.0000 0.72210  0.51380  0.11450  Biso   1.000  C  -0.1623964138200850
  C532     1.0000 0.79170  0.51380  0.38550  Biso   1.000  C  -0.1623964138200850
  C533     1.0000 0.48620  0.27790  0.38550  Biso   1.000  C  -0.1623964138200850
  C534     1.0000 0.72210  0.20830  0.38550  Biso   1.000  C  -0.1623964138200850
  C535     1.0000 0.51380  0.79170  0.88550  Biso   1.000  C  -0.1623964138200850
  C536     1.0000 0.20830  0.72210  0.88550  Biso   1.000  C  -0.1623964138200850
  C537     1.0000 0.27790  0.48620  0.88550  Biso   1.000  C  -0.1623964138200850
  C538     1.0000 0.20830  0.48620  0.61450  Biso   1.000  C  -0.1623964138200850
  C539     1.0000 0.51380  0.72210  0.61450  Biso   1.000  C  -0.1623964138200850
  C540     1.0000 0.27790  0.79170  0.61450  Biso   1.000  C  -0.1623964138200850
  H205     1.0000 0.47130  0.21640  0.09630  Biso   1.000  H  0.1052790812098997
  H206     1.0000 0.78360  0.25490  0.09630  Biso   1.000  H  0.1052790812098997
  H207     1.0000 0.74510  0.52870  0.09630  Biso   1.000  H  0.1052790812098997
  H208     1.0000 0.78360  0.52870  0.40370  Biso   1.000  H  0.1052790812098997
  H209     1.0000 0.47130  0.25490  0.40370  Biso   1.000  H  0.1052790812098997
  H210     1.0000 0.74510  0.21640  0.40370  Biso   1.000  H  0.1052790812098997
  H211     1.0000 0.52870  0.78360  0.90370  Biso   1.000  H  0.1052790812098997
  H212     1.0000 0.21640  0.74510  0.90370  Biso   1.000  H  0.1052790812098997
  H213     1.0000 0.25490  0.47130  0.90370  Biso   1.000  H  0.1052790812098997
  H214     1.0000 0.21640  0.47130  0.59630  Biso   1.000  H  0.1052790812098997
  H215     1.0000 0.52870  0.74510  0.59630  Biso   1.000  H  0.1052790812098997
  H216     1.0000 0.25490  0.78360  0.59630  Biso   1.000  H  0.1052790812098997
  C541     1.0000 0.35010  0.13790  0.85700  Biso   1.000  C  0.3309797957669464
  C542     1.0000 0.86210  0.21220  0.85700  Biso   1.000  C  0.3309797957669464
  C543     1.0000 0.78780  0.64990  0.85700  Biso   1.000  C  0.3309797957669464
  C544     1.0000 0.86210  0.64990  0.64300  Biso   1.000  C  0.3309797957669464
  C545     1.0000 0.35010  0.21220  0.64300  Biso   1.000  C  0.3309797957669464
  C546     1.0000 0.78780  0.13790  0.64300  Biso   1.000  C  0.3309797957669464
  C547     1.0000 0.64990  0.86210  0.14300  Biso   1.000  C  0.3309797957669464
  C548     1.0000 0.13790  0.78780  0.14300  Biso   1.000  C  0.3309797957669464
  C549     1.0000 0.21220  0.35010  0.14300  Biso   1.000  C  0.3309797957669464
  C550     1.0000 0.13790  0.35010  0.35700  Biso   1.000  C  0.3309797957669464
  C551     1.0000 0.64990  0.78780  0.35700  Biso   1.000  C  0.3309797957669464
  C552     1.0000 0.21220  0.86210  0.35700  Biso   1.000  C  0.3309797957669464
  C553     1.0000 0.24890  0.92640  0.20100  Biso   1.000  C  0.3351476155766607
  C554     1.0000 0.07360  0.32250  0.20100  Biso   1.000  C  0.3351476155766607
  C555     1.0000 0.67750  0.75110  0.20100  Biso   1.000  C  0.3351476155766607
  C556     1.0000 0.07360  0.75110  0.29900  Biso   1.000  C  0.3351476155766607
  C557     1.0000 0.24890  0.32250  0.29900  Biso   1.000  C  0.3351476155766607
  C558     1.0000 0.67750  0.92640  0.29900  Biso   1.000  C  0.3351476155766607
  C559     1.0000 0.75110  0.07360  0.79900  Biso   1.000  C  0.3351476155766607
  C560     1.0000 0.92640  0.67750  0.79900  Biso   1.000  C  0.3351476155766607
  C561     1.0000 0.32250  0.24890  0.79900  Biso   1.000  C  0.3351476155766607
  C562     1.0000 0.92640  0.24890  0.70100  Biso   1.000  C  0.3351476155766607
  C563     1.0000 0.75110  0.67750  0.70100  Biso   1.000  C  0.3351476155766607
  C564     1.0000 0.32250  0.07360  0.70100  Biso   1.000  C  0.3351476155766607
  O141     1.0000 0.60360  0.24400  0.20170  Biso   1.000  O  -0.2192315595569936
  O142     1.0000 0.75600  0.35960  0.20170  Biso   1.000  O  -0.2192315595569936
  O143     1.0000 0.64040  0.39640  0.20170  Biso   1.000  O  -0.2192315595569936
  O144     1.0000 0.75600  0.39640  0.29830  Biso   1.000  O  -0.2192315595569936
  O145     1.0000 0.60360  0.35960  0.29830  Biso   1.000  O  -0.2192315595569936
  O146     1.0000 0.64040  0.24400  0.29830  Biso   1.000  O  -0.2192315595569936
  O147     1.0000 0.39640  0.75600  0.79830  Biso   1.000  O  -0.2192315595569936
  O148     1.0000 0.24400  0.64040  0.79830  Biso   1.000  O  -0.2192315595569936
  O149     1.0000 0.35960  0.60360  0.79830  Biso   1.000  O  -0.2192315595569936
  O150     1.0000 0.24400  0.60360  0.70170  Biso   1.000  O  -0.2192315595569936
  O151     1.0000 0.39640  0.64040  0.70170  Biso   1.000  O  -0.2192315595569936
  O152     1.0000 0.35960  0.75600  0.70170  Biso   1.000  O  -0.2192315595569936
  O153     1.0000 0.23750  0.80990  0.22750  Biso   1.000  O  -0.3683468024224255
  O154     1.0000 0.19010  0.42760  0.22750  Biso   1.000  O  -0.3683468024224255
  O155     1.0000 0.57240  0.76250  0.22750  Biso   1.000  O  -0.3683468024224255
  O156     1.0000 0.19010  0.76250  0.27250  Biso   1.000  O  -0.3683468024224255
  O157     1.0000 0.23750  0.42760  0.27250  Biso   1.000  O  -0.3683468024224255
  O158     1.0000 0.57240  0.80990  0.27250  Biso   1.000  O  -0.3683468024224255
  O159     1.0000 0.76250  0.19010  0.77250  Biso   1.000  O  -0.3683468024224255
  O160     1.0000 0.80990  0.57240  0.77250  Biso   1.000  O  -0.3683468024224255
  O161     1.0000 0.42760  0.23750  0.77250  Biso   1.000  O  -0.3683468024224255
  O162     1.0000 0.80990  0.23750  0.72750  Biso   1.000  O  -0.3683468024224255
  O163     1.0000 0.76250  0.57240  0.72750  Biso   1.000  O  -0.3683468024224255
  O164     1.0000 0.42760  0.19010  0.72750  Biso   1.000  O  -0.3683468024224255
  O165     1.0000 0.12790  0.88840  0.21120  Biso   1.000  O  -0.2879260985111616
  O166     1.0000 0.11160  0.23950  0.21120  Biso   1.000  O  -0.2879260985111616
  O167     1.0000 0.76050  0.87210  0.21120  Biso   1.000  O  -0.2879260985111616
  O168     1.0000 0.11160  0.87210  0.28880  Biso   1.000  O  -0.2879260985111616
  O169     1.0000 0.12790  0.23950  0.28880  Biso   1.000  O  -0.2879260985111616
  O170     1.0000 0.76050  0.88840  0.28880  Biso   1.000  O  -0.2879260985111616
  O171     1.0000 0.87210  0.11160  0.78880  Biso   1.000  O  -0.2879260985111616
  O172     1.0000 0.88840  0.76050  0.78880  Biso   1.000  O  -0.2879260985111616
  O173     1.0000 0.23950  0.12790  0.78880  Biso   1.000  O  -0.2879260985111616
  O174     1.0000 0.88840  0.12790  0.71120  Biso   1.000  O  -0.2879260985111616
  O175     1.0000 0.87210  0.76050  0.71120  Biso   1.000  O  -0.2879260985111616
  O176     1.0000 0.23950  0.11160  0.71120  Biso   1.000  O  -0.2879260985111616
  O177     1.0000 0.59070  0.25350  0.22670  Biso   1.000  O  -0.3772251266006562
  O178     1.0000 0.74650  0.33720  0.22670  Biso   1.000  O  -0.3772251266006562
  O179     1.0000 0.66280  0.40930  0.22670  Biso   1.000  O  -0.3772251266006562
  O180     1.0000 0.74650  0.40930  0.27330  Biso   1.000  O  -0.3772251266006562
  O181     1.0000 0.59070  0.33720  0.27330  Biso   1.000  O  -0.3772251266006562
  O182     1.0000 0.66280  0.25350  0.27330  Biso   1.000  O  -0.3772251266006562
  O183     1.0000 0.40930  0.74650  0.77330  Biso   1.000  O  -0.3772251266006562
  O184     1.0000 0.25350  0.66280  0.77330  Biso   1.000  O  -0.3772251266006562
  O185     1.0000 0.33720  0.59070  0.77330  Biso   1.000  O  -0.3772251266006562
  O186     1.0000 0.25350  0.59070  0.72670  Biso   1.000  O  -0.3772251266006562
  O187     1.0000 0.40930  0.66280  0.72670  Biso   1.000  O  -0.3772251266006562
  O188     1.0000 0.33720  0.74650  0.72670  Biso   1.000  O  -0.3772251266006562
  C565     1.0000 0.58380  0.25790  0.18350  Biso   1.000  C  0.4105547822904289
  C566     1.0000 0.74210  0.32590  0.18350  Biso   1.000  C  0.4105547822904289
  C567     1.0000 0.67410  0.41620  0.18350  Biso   1.000  C  0.4105547822904289
  C568     1.0000 0.74210  0.41620  0.31650  Biso   1.000  C  0.4105547822904289
  C569     1.0000 0.58380  0.32590  0.31650  Biso   1.000  C  0.4105547822904289
  C570     1.0000 0.67410  0.25790  0.31650  Biso   1.000  C  0.4105547822904289
  C571     1.0000 0.41620  0.74210  0.81650  Biso   1.000  C  0.4105547822904289
  C572     1.0000 0.25790  0.67410  0.81650  Biso   1.000  C  0.4105547822904289
  C573     1.0000 0.32590  0.58380  0.81650  Biso   1.000  C  0.4105547822904289
  C574     1.0000 0.25790  0.58380  0.68350  Biso   1.000  C  0.4105547822904289
  C575     1.0000 0.41620  0.67410  0.68350  Biso   1.000  C  0.4105547822904289
  C576     1.0000 0.32590  0.74210  0.68350  Biso   1.000  C  0.4105547822904289
  C577     1.0000 0.28540  0.77400  0.26770  Biso   1.000  C  0.2800805263797483
  C578     1.0000 0.22600  0.51140  0.26770  Biso   1.000  C  0.2800805263797483
  C579     1.0000 0.48860  0.71460  0.26770  Biso   1.000  C  0.2800805263797483
  C580     1.0000 0.22600  0.71460  0.23230  Biso   1.000  C  0.2800805263797483
  C581     1.0000 0.28540  0.51140  0.23230  Biso   1.000  C  0.2800805263797483
  C582     1.0000 0.48860  0.77400  0.23230  Biso   1.000  C  0.2800805263797483
  C583     1.0000 0.71460  0.22600  0.73230  Biso   1.000  C  0.2800805263797483
  C584     1.0000 0.77400  0.48860  0.73230  Biso   1.000  C  0.2800805263797483
  C585     1.0000 0.51140  0.28540  0.73230  Biso   1.000  C  0.2800805263797483
  C586     1.0000 0.77400  0.28540  0.76770  Biso   1.000  C  0.2800805263797483
  C587     1.0000 0.71460  0.48860  0.76770  Biso   1.000  C  0.2800805263797483
  C588     1.0000 0.51140  0.22600  0.76770  Biso   1.000  C  0.2800805263797483
  C589     1.0000 0.10060  0.94540  0.22060  Biso   1.000  C  0.1840408438646253
  C590     1.0000 0.05460  0.15520  0.22060  Biso   1.000  C  0.1840408438646253
  C591     1.0000 0.84480  0.89940  0.22060  Biso   1.000  C  0.1840408438646253
  C592     1.0000 0.05460  0.89940  0.27940  Biso   1.000  C  0.1840408438646253
  C593     1.0000 0.10060  0.15520  0.27940  Biso   1.000  C  0.1840408438646253
  C594     1.0000 0.84480  0.94540  0.27940  Biso   1.000  C  0.1840408438646253
  C595     1.0000 0.89940  0.05460  0.77940  Biso   1.000  C  0.1840408438646253
  C596     1.0000 0.94540  0.84480  0.77940  Biso   1.000  C  0.1840408438646253
  C597     1.0000 0.15520  0.10060  0.77940  Biso   1.000  C  0.1840408438646253
  C598     1.0000 0.94540  0.10060  0.72060  Biso   1.000  C  0.1840408438646253
  C599     1.0000 0.89940  0.84480  0.72060  Biso   1.000  C  0.1840408438646253
  C600     1.0000 0.15520  0.05460  0.72060  Biso   1.000  C  0.1840408438646253
  O189     1.0000 0.14790  0.90450  0.27280  Biso   1.000  O  -0.3453971212602989
  O190     1.0000 0.09550  0.24340  0.27280  Biso   1.000  O  -0.3453971212602989
  O191     1.0000 0.75660  0.85210  0.27280  Biso   1.000  O  -0.3453971212602989
  O192     1.0000 0.09550  0.85210  0.22720  Biso   1.000  O  -0.3453971212602989
  O193     1.0000 0.14790  0.24340  0.22720  Biso   1.000  O  -0.3453971212602989
  O194     1.0000 0.75660  0.90450  0.22720  Biso   1.000  O  -0.3453971212602989
  O195     1.0000 0.85210  0.09550  0.72720  Biso   1.000  O  -0.3453971212602989
  O196     1.0000 0.90450  0.75660  0.72720  Biso   1.000  O  -0.3453971212602989
  O197     1.0000 0.24340  0.14790  0.72720  Biso   1.000  O  -0.3453971212602989
  O198     1.0000 0.90450  0.14790  0.77280  Biso   1.000  O  -0.3453971212602989
  O199     1.0000 0.85210  0.75660  0.77280  Biso   1.000  O  -0.3453971212602989
  O200     1.0000 0.24340  0.09550  0.77280  Biso   1.000  O  -0.3453971212602989
  C601     1.0000 0.07940  0.96820  0.22160  Biso   1.000  C  -0.1233171530023233
  C602     1.0000 0.03180  0.11120  0.22160  Biso   1.000  C  -0.1233171530023233
  C603     1.0000 0.88880  0.92060  0.22160  Biso   1.000  C  -0.1233171530023233
  C604     1.0000 0.03180  0.92060  0.27840  Biso   1.000  C  -0.1233171530023233
  C605     1.0000 0.07940  0.11120  0.27840  Biso   1.000  C  -0.1233171530023233
  C606     1.0000 0.88880  0.96820  0.27840  Biso   1.000  C  -0.1233171530023233
  C607     1.0000 0.92060  0.03180  0.77840  Biso   1.000  C  -0.1233171530023233
  C608     1.0000 0.96820  0.88880  0.77840  Biso   1.000  C  -0.1233171530023233
  C609     1.0000 0.11120  0.07940  0.77840  Biso   1.000  C  -0.1233171530023233
  C610     1.0000 0.96820  0.07940  0.72160  Biso   1.000  C  -0.1233171530023233
  C611     1.0000 0.92060  0.88880  0.72160  Biso   1.000  C  -0.1233171530023233
  C612     1.0000 0.11120  0.03180  0.72160  Biso   1.000  C  -0.1233171530023233
  H217     1.0000 0.08830  0.99160  0.20370  Biso   1.000  H  0.1065015511263886
  H218     1.0000 0.00840  0.09670  0.20370  Biso   1.000  H  0.1065015511263886
  H219     1.0000 0.90330  0.91170  0.20370  Biso   1.000  H  0.1065015511263886
  H220     1.0000 0.00840  0.91170  0.29630  Biso   1.000  H  0.1065015511263886
  H221     1.0000 0.08830  0.09670  0.29630  Biso   1.000  H  0.1065015511263886
  H222     1.0000 0.90330  0.99160  0.29630  Biso   1.000  H  0.1065015511263886
  H223     1.0000 0.91170  0.00840  0.79630  Biso   1.000  H  0.1065015511263886
  H224     1.0000 0.99160  0.90330  0.79630  Biso   1.000  H  0.1065015511263886
  H225     1.0000 0.09670  0.08830  0.79630  Biso   1.000  H  0.1065015511263886
  H226     1.0000 0.99160  0.08830  0.70370  Biso   1.000  H  0.1065015511263886
  H227     1.0000 0.91170  0.90330  0.70370  Biso   1.000  H  0.1065015511263886
  H228     1.0000 0.09670  0.00840  0.70370  Biso   1.000  H  0.1065015511263886
  C613     1.0000 0.30750  0.75200  0.26760  Biso   1.000  C  -0.1678216243799895
  C614     1.0000 0.24800  0.55550  0.26760  Biso   1.000  C  -0.1678216243799895
  C615     1.0000 0.44450  0.69250  0.26760  Biso   1.000  C  -0.1678216243799895
  C616     1.0000 0.24800  0.69250  0.23240  Biso   1.000  C  -0.1678216243799895
  C617     1.0000 0.30750  0.55550  0.23240  Biso   1.000  C  -0.1678216243799895
  C618     1.0000 0.44450  0.75200  0.23240  Biso   1.000  C  -0.1678216243799895
  C619     1.0000 0.69250  0.24800  0.73240  Biso   1.000  C  -0.1678216243799895
  C620     1.0000 0.75200  0.44450  0.73240  Biso   1.000  C  -0.1678216243799895
  C621     1.0000 0.55550  0.30750  0.73240  Biso   1.000  C  -0.1678216243799895
  C622     1.0000 0.75200  0.30750  0.76760  Biso   1.000  C  -0.1678216243799895
  C623     1.0000 0.69250  0.44450  0.76760  Biso   1.000  C  -0.1678216243799895
  C624     1.0000 0.55550  0.24800  0.76760  Biso   1.000  C  -0.1678216243799895
  H229     1.0000 0.33440  0.76440  0.27910  Biso   1.000  H  0.1022200017176427
  H230     1.0000 0.23560  0.57000  0.27910  Biso   1.000  H  0.1022200017176427
  H231     1.0000 0.43000  0.66560  0.27910  Biso   1.000  H  0.1022200017176427
  H232     1.0000 0.23560  0.66560  0.22090  Biso   1.000  H  0.1022200017176427
  H233     1.0000 0.33440  0.57000  0.22090  Biso   1.000  H  0.1022200017176427
  H234     1.0000 0.43000  0.76440  0.22090  Biso   1.000  H  0.1022200017176427
  H235     1.0000 0.66560  0.23560  0.72090  Biso   1.000  H  0.1022200017176427
  H236     1.0000 0.76440  0.43000  0.72090  Biso   1.000  H  0.1022200017176427
  H237     1.0000 0.57000  0.33440  0.72090  Biso   1.000  H  0.1022200017176427
  H238     1.0000 0.76440  0.33440  0.77910  Biso   1.000  H  0.1022200017176427
  H239     1.0000 0.66560  0.43000  0.77910  Biso   1.000  H  0.1022200017176427
  H240     1.0000 0.57000  0.23560  0.77910  Biso   1.000  H  0.1022200017176427
  F1       1.0000 0.29770  0.01010  0.24390  Biso   1.000  F  -0.1724524304633000
  F2       1.0000 0.98990  0.28760  0.24390  Biso   1.000  F  -0.1724524304633000
  F3       1.0000 0.71240  0.70230  0.24390  Biso   1.000  F  -0.1724524304633000
  F4       1.0000 0.98990  0.70230  0.25610  Biso   1.000  F  -0.1724524304633000
  F5       1.0000 0.29770  0.28760  0.25610  Biso   1.000  F  -0.1724524304633000
  F6       1.0000 0.71240  0.01010  0.25610  Biso   1.000  F  -0.1724524304633000
  F7       1.0000 0.70230  0.98990  0.75610  Biso   1.000  F  -0.1724524304633000
  F8       1.0000 0.01010  0.71240  0.75610  Biso   1.000  F  -0.1724524304633000
  F9       1.0000 0.28760  0.29770  0.75610  Biso   1.000  F  -0.1724524304633000
  F10      1.0000 0.01010  0.29770  0.74390  Biso   1.000  F  -0.1724524304633000
  F11      1.0000 0.70230  0.71240  0.74390  Biso   1.000  F  -0.1724524304633000
  F12      1.0000 0.28760  0.98990  0.74390  Biso   1.000  F  -0.1724524304633000
  F13      1.0000 0.30240  0.80800  0.20380  Biso   1.000  F  -0.1210872649717134
  F14      1.0000 0.19200  0.49440  0.20380  Biso   1.000  F  -0.1210872649717134
  F15      1.0000 0.50560  0.69760  0.20380  Biso   1.000  F  -0.1210872649717134
  F16      1.0000 0.19200  0.69760  0.29620  Biso   1.000  F  -0.1210872649717134
  F17      1.0000 0.30240  0.49440  0.29620  Biso   1.000  F  -0.1210872649717134
  F18      1.0000 0.50560  0.80800  0.29620  Biso   1.000  F  -0.1210872649717134
  F19      1.0000 0.69760  0.19200  0.79620  Biso   1.000  F  -0.1210872649717134
  F20      1.0000 0.80800  0.50560  0.79620  Biso   1.000  F  -0.1210872649717134
  F21      1.0000 0.49440  0.30240  0.79620  Biso   1.000  F  -0.1210872649717134
  F22      1.0000 0.80800  0.30240  0.70380  Biso   1.000  F  -0.1210872649717134
  F23      1.0000 0.69760  0.50560  0.70380  Biso   1.000  F  -0.1210872649717134
  F24      1.0000 0.49440  0.19200  0.70380  Biso   1.000  F  -0.1210872649717134
  F25      1.0000 0.53240  0.27790  0.12080  Biso   1.000  F  -0.1354033428759259
  F26      1.0000 0.72210  0.25450  0.12080  Biso   1.000  F  -0.1354033428759259
  F27      1.0000 0.74550  0.46760  0.12080  Biso   1.000  F  -0.1354033428759259
  F28      1.0000 0.72210  0.46760  0.37920  Biso   1.000  F  -0.1354033428759259
  F29      1.0000 0.53240  0.25450  0.37920  Biso   1.000  F  -0.1354033428759259
  F30      1.0000 0.74550  0.27790  0.37920  Biso   1.000  F  -0.1354033428759259
  F31      1.0000 0.46760  0.72210  0.87920  Biso   1.000  F  -0.1354033428759259
  F32      1.0000 0.27790  0.74550  0.87920  Biso   1.000  F  -0.1354033428759259
  F33      1.0000 0.25450  0.53240  0.87920  Biso   1.000  F  -0.1354033428759259
  F34      1.0000 0.27790  0.53240  0.62080  Biso   1.000  F  -0.1354033428759259
  F35      1.0000 0.46760  0.74550  0.62080  Biso   1.000  F  -0.1354033428759259
  F36      1.0000 0.25450  0.72210  0.62080  Biso   1.000  F  -0.1354033428759259
  F37      1.0000 0.32090  0.05440  0.89230  Biso   1.000  F  -0.1366517920576492
  F38      1.0000 0.94560  0.26650  0.89230  Biso   1.000  F  -0.1366517920576492
  F39      1.0000 0.73350  0.67910  0.89230  Biso   1.000  F  -0.1366517920576492
  F40      1.0000 0.94560  0.67910  0.60770  Biso   1.000  F  -0.1366517920576492
  F41      1.0000 0.32090  0.26650  0.60770  Biso   1.000  F  -0.1366517920576492
  F42      1.0000 0.73350  0.05440  0.60770  Biso   1.000  F  -0.1366517920576492
  F43      1.0000 0.67910  0.94560  0.10770  Biso   1.000  F  -0.1366517920576492
  F44      1.0000 0.05440  0.73350  0.10770  Biso   1.000  F  -0.1366517920576492
  F45      1.0000 0.26650  0.32090  0.10770  Biso   1.000  F  -0.1366517920576492
  F46      1.0000 0.05440  0.32090  0.39230  Biso   1.000  F  -0.1366517920576492
  F47      1.0000 0.67910  0.73350  0.39230  Biso   1.000  F  -0.1366517920576492
  F48      1.0000 0.26650  0.94560  0.39230  Biso   1.000  F  -0.1366517920576492
  F49      1.0000 0.33840  0.95950  0.21150  Biso   1.000  F  -0.1366517920576492
  F50      1.0000 0.04050  0.37890  0.21150  Biso   1.000  F  -0.1366517920576492
  F51      1.0000 0.62110  0.66160  0.21150  Biso   1.000  F  -0.1366517920576492
  F52      1.0000 0.04050  0.66160  0.28850  Biso   1.000  F  -0.1366517920576492
  F53      1.0000 0.33840  0.37890  0.28850  Biso   1.000  F  -0.1366517920576492
  F54      1.0000 0.62110  0.95950  0.28850  Biso   1.000  F  -0.1366517920576492
  F55      1.0000 0.66160  0.04050  0.78850  Biso   1.000  F  -0.1366517920576492
  F56      1.0000 0.95950  0.62110  0.78850  Biso   1.000  F  -0.1366517920576492
  F57      1.0000 0.37890  0.33840  0.78850  Biso   1.000  F  -0.1366517920576492
  F58      1.0000 0.95950  0.33840  0.71150  Biso   1.000  F  -0.1366517920576492
  F59      1.0000 0.66160  0.62110  0.71150  Biso   1.000  F  -0.1366517920576492
  F60      1.0000 0.37890  0.04050  0.71150  Biso   1.000  F  -0.1366517920576492
  F61      1.0000 0.54480  0.16410  0.19770  Biso   1.000  F  -0.1726839715422663
  F62      1.0000 0.83590  0.38070  0.19770  Biso   1.000  F  -0.1726839715422663
  F63      1.0000 0.61930  0.45520  0.19770  Biso   1.000  F  -0.1726839715422663
  F64      1.0000 0.83590  0.45520  0.30230  Biso   1.000  F  -0.1726839715422663
  F65      1.0000 0.54480  0.38070  0.30230  Biso   1.000  F  -0.1726839715422663
  F66      1.0000 0.61930  0.16410  0.30230  Biso   1.000  F  -0.1726839715422663
  F67      1.0000 0.45520  0.83590  0.80230  Biso   1.000  F  -0.1726839715422663
  F68      1.0000 0.16410  0.61930  0.80230  Biso   1.000  F  -0.1726839715422663
  F69      1.0000 0.38070  0.54480  0.80230  Biso   1.000  F  -0.1726839715422663
  F70      1.0000 0.16410  0.54480  0.69770  Biso   1.000  F  -0.1726839715422663
  F71      1.0000 0.45520  0.61930  0.69770  Biso   1.000  F  -0.1726839715422663
  F72      1.0000 0.38070  0.83590  0.69770  Biso   1.000  F  -0.1726839715422663
  F73      1.0000 0.13840  0.96750  0.30300  Biso   1.000  F  -0.1190247969146660
  F74      1.0000 0.03250  0.17090  0.30300  Biso   1.000  F  -0.1190247969146660
  F75      1.0000 0.82910  0.86160  0.30300  Biso   1.000  F  -0.1190247969146660
  F76      1.0000 0.03250  0.86160  0.19700  Biso   1.000  F  -0.1190247969146660
  F77      1.0000 0.13840  0.17090  0.19700  Biso   1.000  F  -0.1190247969146660
  F78      1.0000 0.82910  0.96750  0.19700  Biso   1.000  F  -0.1190247969146660
  F79      1.0000 0.86160  0.03250  0.69700  Biso   1.000  F  -0.1190247969146660
  F80      1.0000 0.96750  0.82910  0.69700  Biso   1.000  F  -0.1190247969146660
  F81      1.0000 0.17090  0.13840  0.69700  Biso   1.000  F  -0.1190247969146660
  F82      1.0000 0.96750  0.13840  0.80300  Biso   1.000  F  -0.1190247969146660
  F83      1.0000 0.86160  0.82910  0.80300  Biso   1.000  F  -0.1190247969146660
  F84      1.0000 0.17090  0.03250  0.80300  Biso   1.000  F  -0.1190247969146660
  F85      1.0000 0.43040  0.15190  0.88310  Biso   1.000  F  -0.1724524304633000
  F86      1.0000 0.84810  0.27850  0.88310  Biso   1.000  F  -0.1724524304633000
  F87      1.0000 0.72150  0.56960  0.88310  Biso   1.000  F  -0.1724524304633000
  F88      1.0000 0.84810  0.56960  0.61690  Biso   1.000  F  -0.1724524304633000
  F89      1.0000 0.43040  0.27850  0.61690  Biso   1.000  F  -0.1724524304633000
  F90      1.0000 0.72150  0.15190  0.61690  Biso   1.000  F  -0.1724524304633000
  F91      1.0000 0.56960  0.84810  0.11690  Biso   1.000  F  -0.1724524304633000
  F92      1.0000 0.15190  0.72150  0.11690  Biso   1.000  F  -0.1724524304633000
  F93      1.0000 0.27850  0.43040  0.11690  Biso   1.000  F  -0.1724524304633000
  F94      1.0000 0.15190  0.43040  0.38310  Biso   1.000  F  -0.1724524304633000
  F95      1.0000 0.56960  0.72150  0.38310  Biso   1.000  F  -0.1724524304633000
  F96      1.0000 0.27850  0.84810  0.38310  Biso   1.000  F  -0.1724524304633000
  F97      1.0000 0.57660  0.24310  0.08760  Biso   1.000  F  -0.1360804609559000
  F98      1.0000 0.75690  0.33350  0.08760  Biso   1.000  F  -0.1360804609559000
  F99      1.0000 0.66650  0.42340  0.08760  Biso   1.000  F  -0.1360804609559000
  F100     1.0000 0.75690  0.42340  0.41240  Biso   1.000  F  -0.1360804609559000
  F101     1.0000 0.57660  0.33350  0.41240  Biso   1.000  F  -0.1360804609559000
  F102     1.0000 0.66650  0.24310  0.41240  Biso   1.000  F  -0.1360804609559000
  F103     1.0000 0.42340  0.75690  0.91240  Biso   1.000  F  -0.1360804609559000
  F104     1.0000 0.24310  0.66650  0.91240  Biso   1.000  F  -0.1360804609559000
  F105     1.0000 0.33350  0.57660  0.91240  Biso   1.000  F  -0.1360804609559000
  F106     1.0000 0.24310  0.57660  0.58760  Biso   1.000  F  -0.1360804609559000
  F107     1.0000 0.42340  0.66650  0.58760  Biso   1.000  F  -0.1360804609559000
  F108     1.0000 0.33350  0.75690  0.58760  Biso   1.000  F  -0.1360804609559000
  F109     1.0000 0.28280  0.09730  0.92970  Biso   1.000  F  -0.1726839715422663
  F110     1.0000 0.90270  0.18550  0.92970  Biso   1.000  F  -0.1726839715422663
  F111     1.0000 0.81450  0.71720  0.92970  Biso   1.000  F  -0.1726839715422663
  F112     1.0000 0.90270  0.71720  0.57030  Biso   1.000  F  -0.1726839715422663
  F113     1.0000 0.28280  0.18550  0.57030  Biso   1.000  F  -0.1726839715422663
  F114     1.0000 0.81450  0.09730  0.57030  Biso   1.000  F  -0.1726839715422663
  F115     1.0000 0.71720  0.90270  0.07030  Biso   1.000  F  -0.1726839715422663
  F116     1.0000 0.09730  0.81450  0.07030  Biso   1.000  F  -0.1726839715422663
  F117     1.0000 0.18550  0.28280  0.07030  Biso   1.000  F  -0.1726839715422663
  F118     1.0000 0.09730  0.28280  0.42970  Biso   1.000  F  -0.1726839715422663
  F119     1.0000 0.71720  0.81450  0.42970  Biso   1.000  F  -0.1726839715422663
  F120     1.0000 0.18550  0.90270  0.42970  Biso   1.000  F  -0.1726839715422663
  F121     1.0000 0.13450  0.96640  0.19080  Biso   1.000  F  -0.1890126578539026
  F122     1.0000 0.03360  0.16810  0.19080  Biso   1.000  F  -0.1890126578539026
  F123     1.0000 0.83190  0.86550  0.19080  Biso   1.000  F  -0.1890126578539026
  F124     1.0000 0.03360  0.86550  0.30920  Biso   1.000  F  -0.1890126578539026
  F125     1.0000 0.13450  0.16810  0.30920  Biso   1.000  F  -0.1890126578539026
  F126     1.0000 0.83190  0.96640  0.30920  Biso   1.000  F  -0.1890126578539026
  F127     1.0000 0.86550  0.03360  0.80920  Biso   1.000  F  -0.1890126578539026
  F128     1.0000 0.96640  0.83190  0.80920  Biso   1.000  F  -0.1890126578539026
  F129     1.0000 0.16810  0.13450  0.80920  Biso   1.000  F  -0.1890126578539026
  F130     1.0000 0.96640  0.13450  0.69080  Biso   1.000  F  -0.1890126578539026
  F131     1.0000 0.86550  0.83190  0.69080  Biso   1.000  F  -0.1890126578539026
  F132     1.0000 0.16810  0.03360  0.69080  Biso   1.000  F  -0.1890126578539026
  F133     1.0000 0.30500  0.81430  0.28630  Biso   1.000  F  -0.1728153280686456
  F134     1.0000 0.18570  0.49070  0.28630  Biso   1.000  F  -0.1728153280686456
  F135     1.0000 0.50930  0.69500  0.28630  Biso   1.000  F  -0.1728153280686456
  F136     1.0000 0.18570  0.69500  0.21370  Biso   1.000  F  -0.1728153280686456
  F137     1.0000 0.30500  0.49070  0.21370  Biso   1.000  F  -0.1728153280686456
  F138     1.0000 0.50930  0.81430  0.21370  Biso   1.000  F  -0.1728153280686456
  F139     1.0000 0.69500  0.18570  0.71370  Biso   1.000  F  -0.1728153280686456
  F140     1.0000 0.81430  0.50930  0.71370  Biso   1.000  F  -0.1728153280686456
  F141     1.0000 0.49070  0.30500  0.71370  Biso   1.000  F  -0.1728153280686456
  F142     1.0000 0.81430  0.30500  0.78630  Biso   1.000  F  -0.1728153280686456
  F143     1.0000 0.69500  0.50930  0.78630  Biso   1.000  F  -0.1728153280686456
  F144     1.0000 0.49070  0.18570  0.78630  Biso   1.000  F  -0.1728153280686456
  F145     1.0000 0.22710  0.96910  0.12980  Biso   1.000  F  -0.1354033428759259
  F146     1.0000 0.03090  0.25800  0.12980  Biso   1.000  F  -0.1354033428759259
  F147     1.0000 0.74200  0.77290  0.12980  Biso   1.000  F  -0.1354033428759259
  F148     1.0000 0.03090  0.77290  0.37020  Biso   1.000  F  -0.1354033428759259
  F149     1.0000 0.22710  0.25800  0.37020  Biso   1.000  F  -0.1354033428759259
  F150     1.0000 0.74200  0.96910  0.37020  Biso   1.000  F  -0.1354033428759259
  F151     1.0000 0.77290  0.03090  0.87020  Biso   1.000  F  -0.1354033428759259
  F152     1.0000 0.96910  0.74200  0.87020  Biso   1.000  F  -0.1354033428759259
  F153     1.0000 0.25800  0.22710  0.87020  Biso   1.000  F  -0.1354033428759259
  F154     1.0000 0.96910  0.22710  0.62980  Biso   1.000  F  -0.1354033428759259
  F155     1.0000 0.77290  0.74200  0.62980  Biso   1.000  F  -0.1354033428759259
  F156     1.0000 0.25800  0.03090  0.62980  Biso   1.000  F  -0.1354033428759259
  F157     1.0000 0.39410  0.20660  0.92450  Biso   1.000  F  -0.1724524304633000
  F158     1.0000 0.79340  0.18750  0.92450  Biso   1.000  F  -0.1724524304633000
  F159     1.0000 0.81250  0.60590  0.92450  Biso   1.000  F  -0.1724524304633000
  F160     1.0000 0.79340  0.60590  0.57550  Biso   1.000  F  -0.1724524304633000
  F161     1.0000 0.39410  0.18750  0.57550  Biso   1.000  F  -0.1724524304633000
  F162     1.0000 0.81250  0.20660  0.57550  Biso   1.000  F  -0.1724524304633000
  F163     1.0000 0.60590  0.79340  0.07550  Biso   1.000  F  -0.1724524304633000
  F164     1.0000 0.20660  0.81250  0.07550  Biso   1.000  F  -0.1724524304633000
  F165     1.0000 0.18750  0.39410  0.07550  Biso   1.000  F  -0.1724524304633000
  F166     1.0000 0.20660  0.39410  0.42450  Biso   1.000  F  -0.1724524304633000
  F167     1.0000 0.60590  0.81250  0.42450  Biso   1.000  F  -0.1724524304633000
  F168     1.0000 0.18750  0.79340  0.42450  Biso   1.000  F  -0.1724524304633000
  F169     1.0000 0.50700  0.20000  0.24800  Biso   1.000  F  -0.8103088094905110
  F170     1.0000 0.80000  0.30700  0.24800  Biso   1.000  F  -0.8103088094905110
  F171     1.0000 0.69300  0.49300  0.24800  Biso   1.000  F  -0.8103088094905110
  F172     1.0000 0.80000  0.49300  0.25200  Biso   1.000  F  -0.8103088094905110
  F173     1.0000 0.50700  0.30700  0.25200  Biso   1.000  F  -0.8103088094905110
  F174     1.0000 0.69300  0.20000  0.25200  Biso   1.000  F  -0.8103088094905110
  F175     1.0000 0.49300  0.80000  0.75200  Biso   1.000  F  -0.8103088094905110
  F176     1.0000 0.20000  0.69300  0.75200  Biso   1.000  F  -0.8103088094905110
  F177     1.0000 0.30700  0.50700  0.75200  Biso   1.000  F  -0.8103088094905110
  F178     1.0000 0.20000  0.50700  0.74800  Biso   1.000  F  -0.8103088094905110
  F179     1.0000 0.49300  0.69300  0.74800  Biso   1.000  F  -0.8103088094905110
  F180     1.0000 0.30700  0.80000  0.74800  Biso   1.000  F  -0.8103088094905110
  F181     1.0000 0.26440  0.92860  0.08920  Biso   1.000  F  -0.1979372271048833
  F182     1.0000 0.07140  0.33580  0.08920  Biso   1.000  F  -0.1979372271048833
  F183     1.0000 0.66420  0.73560  0.08920  Biso   1.000  F  -0.1979372271048833
  F184     1.0000 0.07140  0.73560  0.41080  Biso   1.000  F  -0.1979372271048833
  F185     1.0000 0.26440  0.33580  0.41080  Biso   1.000  F  -0.1979372271048833
  F186     1.0000 0.66420  0.92860  0.41080  Biso   1.000  F  -0.1979372271048833
  F187     1.0000 0.73560  0.07140  0.91080  Biso   1.000  F  -0.1979372271048833
  F188     1.0000 0.92860  0.66420  0.91080  Biso   1.000  F  -0.1979372271048833
  F189     1.0000 0.33580  0.26440  0.91080  Biso   1.000  F  -0.1979372271048833
  F190     1.0000 0.92860  0.26440  0.58920  Biso   1.000  F  -0.1979372271048833
  F191     1.0000 0.73560  0.66420  0.58920  Biso   1.000  F  -0.1979372271048833
  F192     1.0000 0.33580  0.07140  0.58920  Biso   1.000  F  -0.1979372271048833
