data_MOF-177

_audit_creation_method RASPA-1.0
_audit_creation_date 2025-11-8
_audit_author_name ''

_cell_length_a    37.072
_cell_length_b    37.072
_cell_length_c    30.0333
_cell_angle_alpha 90
_cell_angle_beta  90
_cell_angle_gamma 120
_cell_volume      142983

_symmetry_cell_setting          trigonal
_symmetry_space_group_name_Hall 'P 3'
_symmetry_space_group_name_H-M  'P 3'
_symmetry_Int_Tables_number     143

loop_
_symmetry_equiv_pos_as_xyz
 'x,y,z'
 '-y,x-y,z'
 '-x+y,-x,z'

loop_
_atom_site_label
_atom_site_type_symbol
_atom_site_fract_x
_atom_site_fract_y
_atom_site_fract_z
_atom_site_charge
Zn1      Zn     0.156000000000     0.296000000000     0.198300000000     0     
Zn1      Zn     0.224600000000     0.366300000000     0.260200000000     0     
O2       O      0.371600000000     0.238800000000     0.821400000000     0     
O2       O      0.318500000000     0.179600000000     0.851100000000     0     
O2       O      0.585400000000     0.332300000000     0.227000000000     0     
O2       O      0.615100000000     0.326700000000     0.165300000000     0     
O2       O      0.260300000000     0.352700000000     0.224300000000     0     
O2       O      0.211400000000     0.304700000000     0.181500000000     0     
O2       O      0.118600000000     0.239600000000     0.212100000000     0     
O2       O      0.242900000000     0.424500000000     0.246400000000     0     
C6       C      0.388400000000     0.280000000000     0.033500000000     0     
C7       C      0.424900000000     0.288100000000     0.053600000000     0     
C6       C      0.434900000000     0.302000000000     0.098000000000     0     
C7       C      0.406800000000     0.309200000000     0.120600000000     0     
C6       C      0.369900000000     0.301200000000     0.101800000000     0     
C7       C      0.360700000000     0.285700000000     0.058900000000     0     
C5       C      0.473400000000     0.308200000000     0.118500000000     0     
C4       C      0.491900000000     0.287400000000     0.107000000000     0     
C3       C      0.527600000000     0.295200000000     0.128000000000     0     
C2       C      0.544200000000     0.319700000000     0.160800000000     0     
C3       C      0.527200000000     0.342200000000     0.170300000000     0     
C4       C      0.491700000000     0.335200000000     0.149300000000     0     
C5       C      0.340000000000     0.309200000000     0.124200000000     0     
C4       C      0.347700000000     0.335200000000     0.156500000000     0     
C3       C      0.318300000000     0.341600000000     0.179900000000     0     
C2       C      0.282200000000     0.322500000000     0.170500000000     0     
C3       C      0.271300000000     0.298500000000     0.136500000000     0     
C4       C      0.300100000000     0.292100000000     0.113700000000     0     
C5       C      0.380600000000     0.265900000000     0.985800000000     0     
C4       C      0.340400000000     0.235200000000     0.974500000000     0     
C3       C      0.398500000000     0.263800000000     0.911200000000     0     
C2       C      0.359900000000     0.232100000000     0.900400000000     0     
C4       C      0.407300000000     0.275400000000     0.953100000000     0     
C1       C      0.350400000000     0.216800000000     0.854000000000     0     
C1       C      0.584400000000     0.324700000000     0.182600000000     0     
C1       C      0.253100000000     0.328500000000     0.192800000000     0     
C4       C      0.041000000000     0.112800000000     0.285800000000     0     
C3       C      0.063400000000     0.157100000000     0.285800000000     0     
C4       C      0.306600000000     0.554000000000     0.235400000000     0     
C3       C      0.285000000000     0.512400000000     0.235600000000     0     
C3       C      0.332400000000     0.220400000000     0.929100000000     0     
Zn1      Zn     0.621900000000     0.340700000000     0.277900000000     0     
Zn1      Zn     0.140000000000     0.296000000000     0.301700000000     0     
Zn1      Zn     0.141700000000     0.366300000000     0.239800000000     0     
O2       O      0.371600000000     0.132800000000     0.678600000000     0     
O2       O      0.318500000000     0.138900000000     0.648900000000     0     
O2       O      0.604700000000     0.238500000000     0.300700000000     0     
O2       O      0.582200000000     0.294000000000     0.310200000000     0     
O2       O      0.092400000000     0.352700000000     0.275700000000     0     
O2       O      0.093300000000     0.304700000000     0.318500000000     0     
O2       O      0.121000000000     0.239600000000     0.287900000000     0     
O2       O      0.181600000000     0.424500000000     0.253600000000     0     
C6       C      0.388400000000     0.108400000000     0.466500000000     0     
C7       C      0.424900000000     0.136800000000     0.446400000000     0     
C6       C      0.434900000000     0.132900000000     0.402000000000     0     
C7       C      0.406800000000     0.097600000000     0.379400000000     0     
C6       C      0.369900000000     0.068700000000     0.398200000000     0     
C7       C      0.360700000000     0.075000000000     0.441100000000     0     
C5       C      0.473400000000     0.165200000000     0.381500000000     0     
C4       C      0.491900000000     0.204500000000     0.393000000000     0     
C3       C      0.527600000000     0.232400000000     0.372000000000     0     
C2       C      0.544200000000     0.224500000000     0.339200000000     0     
C3       C      0.527200000000     0.185000000000     0.329700000000     0     
C4       C      0.491700000000     0.156500000000     0.350700000000     0     
C5       C      0.340000000000     0.030800000000     0.375800000000     0     
C4       C      0.347700000000     0.012500000000     0.343500000000     0     
C3       C      0.023300000000     0.341600000000     0.320100000000     0     
C2       C      0.040300000000     0.322500000000     0.329500000000     0     
C3       C      0.027200000000     0.298500000000     0.363500000000     0     
C4       C      0.300100000000     0.008000000000     0.386300000000     0     
C5       C      0.380600000000     0.114700000000     0.514200000000     0     
C4       C      0.340400000000     0.105200000000     0.525500000000     0     
C3       C      0.398500000000     0.134700000000     0.588800000000     0     
C2       C      0.359900000000     0.127800000000     0.599600000000     0     
C4       C      0.407300000000     0.131900000000     0.546900000000     0     
C1       C      0.350400000000     0.133600000000     0.646000000000     0     
C1       C      0.584400000000     0.259700000000     0.317400000000     0     
C1       C      0.075400000000     0.328500000000     0.307200000000     0     
C4       C      0.071800000000     0.112800000000     0.214200000000     0     
C3       C      0.093700000000     0.157100000000     0.214200000000     0     
C4       C      0.247400000000     0.554000000000     0.264600000000     0     
C3       C      0.227400000000     0.512400000000     0.264400000000     0     
C3       C      0.332400000000     0.112000000000     0.570900000000     0     
Zn1      Zn     0.340700000000     0.621900000000     0.777900000000     0     
Zn1      Zn     0.296000000000     0.140000000000     0.801700000000     0     
Zn1      Zn     0.366300000000     0.141700000000     0.739800000000     0     
O2       O      0.132800000000     0.371600000000     0.178600000000     0     
O2       O      0.138900000000     0.318500000000     0.148900000000     0     
O2       O      0.238500000000     0.604700000000     0.800700000000     0     
O2       O      0.294000000000     0.582200000000     0.810200000000     0     
O2       O      0.352700000000     0.092400000000     0.775700000000     0     
O2       O      0.304700000000     0.093300000000     0.818500000000     0     
O2       O      0.239600000000     0.121000000000     0.787900000000     0     
O2       O      0.424500000000     0.181600000000     0.753600000000     0     
C6       C      0.108400000000     0.388400000000     0.966500000000     0     
C7       C      0.136800000000     0.424900000000     0.946400000000     0     
C6       C      0.132900000000     0.434900000000     0.902000000000     0     
C7       C      0.097600000000     0.406800000000     0.879400000000     0     
C6       C      0.068700000000     0.369900000000     0.898200000000     0     
C7       C      0.075000000000     0.360700000000     0.941100000000     0     
C5       C      0.165200000000     0.473400000000     0.881500000000     0     
C4       C      0.204500000000     0.491900000000     0.893000000000     0     
C3       C      0.232400000000     0.527600000000     0.872000000000     0     
C2       C      0.224500000000     0.544200000000     0.839200000000     0     
C3       C      0.185000000000     0.527200000000     0.829700000000     0     
C4       C      0.156500000000     0.491700000000     0.850700000000     0     
C5       C      0.030800000000     0.340000000000     0.875800000000     0     
C4       C      0.012500000000     0.347700000000     0.843500000000     0     
C3       C      0.341600000000     0.023300000000     0.820100000000     0     
C2       C      0.322500000000     0.040300000000     0.829500000000     0     
C3       C      0.298500000000     0.027200000000     0.863500000000     0     
C4       C      0.008000000000     0.300100000000     0.886300000000     0     
C5       C      0.114700000000     0.380600000000     0.014200000000     0     
C4       C      0.105200000000     0.340400000000     0.025500000000     0     
C3       C      0.134700000000     0.398500000000     0.088800000000     0     
C2       C      0.127800000000     0.359900000000     0.099600000000     0     
C4       C      0.131900000000     0.407300000000     0.046900000000     0     
C1       C      0.133600000000     0.350400000000     0.146000000000     0     
C1       C      0.259700000000     0.584400000000     0.817400000000     0     
C1       C      0.328500000000     0.075400000000     0.807200000000     0     
C4       C      0.112800000000     0.071800000000     0.714200000000     0     
C3       C      0.157100000000     0.093700000000     0.714200000000     0     
C4       C      0.554000000000     0.247400000000     0.764600000000     0     
C3       C      0.512400000000     0.227400000000     0.764400000000     0     
C3       C      0.112000000000     0.332400000000     0.070900000000     0     
Zn1      Zn     0.296000000000     0.156000000000     0.698300000000     0     
Zn1      Zn     0.366300000000     0.224600000000     0.760200000000     0     
O2       O      0.238800000000     0.371600000000     0.321400000000     0     
O2       O      0.179600000000     0.318500000000     0.351100000000     0     
O2       O      0.332300000000     0.585400000000     0.727000000000     0     
O2       O      0.326700000000     0.615100000000     0.665300000000     0     
O2       O      0.352700000000     0.260300000000     0.724300000000     0     
O2       O      0.304700000000     0.211400000000     0.681500000000     0     
O2       O      0.239600000000     0.118600000000     0.712100000000     0     
O2       O      0.424500000000     0.242900000000     0.746400000000     0     
C6       C      0.280000000000     0.388400000000     0.533500000000     0     
C7       C      0.288100000000     0.424900000000     0.553600000000     0     
C6       C      0.302000000000     0.434900000000     0.598000000000     0     
C7       C      0.309200000000     0.406800000000     0.620600000000     0     
C6       C      0.301200000000     0.369900000000     0.601800000000     0     
C7       C      0.285700000000     0.360700000000     0.558900000000     0     
C5       C      0.308200000000     0.473400000000     0.618500000000     0     
C4       C      0.287400000000     0.491900000000     0.607000000000     0     
C3       C      0.295200000000     0.527600000000     0.628000000000     0     
C2       C      0.319700000000     0.544200000000     0.660800000000     0     
C3       C      0.342200000000     0.527200000000     0.670300000000     0     
C4       C      0.335200000000     0.491700000000     0.649300000000     0     
C5       C      0.309200000000     0.340000000000     0.624200000000     0     
C4       C      0.335200000000     0.347700000000     0.656500000000     0     
C3       C      0.341600000000     0.318300000000     0.679900000000     0     
C2       C      0.322500000000     0.282200000000     0.670500000000     0     
C3       C      0.298500000000     0.271300000000     0.636500000000     0     
C4       C      0.292100000000     0.300100000000     0.613700000000     0     
C5       C      0.265900000000     0.380600000000     0.485800000000     0     
C4       C      0.235200000000     0.340400000000     0.474500000000     0     
C3       C      0.263800000000     0.398500000000     0.411200000000     0     
C2       C      0.232100000000     0.359900000000     0.400400000000     0     
C4       C      0.275400000000     0.407300000000     0.453100000000     0     
C1       C      0.216800000000     0.350400000000     0.354000000000     0     
C1       C      0.324700000000     0.584400000000     0.682600000000     0     
C1       C      0.328500000000     0.253100000000     0.692800000000     0     
C4       C      0.112800000000     0.041000000000     0.785800000000     0     
C3       C      0.157100000000     0.063400000000     0.785800000000     0     
C4       C      0.554000000000     0.306600000000     0.735400000000     0     
C3       C      0.512400000000     0.285000000000     0.735600000000     0     
C3       C      0.220400000000     0.332400000000     0.429100000000     0     
Zn1      Zn     0.666660000000     0.333330000000     0.190400000000     0     
Zn1      Zn     0.333330000000     0.666660000000     0.690400000000     0     
O1       O      0.166450000000     0.332900000000     0.250000000000     0     
C6       C      0.021650000000     0.043300000000     0.250000000000     0     
C5       C      0.045350000000     0.090700000000     0.250000000000     0     
C2       C      0.088800000000     0.177600000000     0.250000000000     0     
C1       C      0.110450000000     0.220900000000     0.250000000000     0     
C6       C      0.311950000000     0.623900000000     0.250000000000     0     
C5       C      0.287800000000     0.575600000000     0.250000000000     0     
C2       C      0.245050000000     0.490100000000     0.250000000000     0     
C1       C      0.221550000000     0.443100000000     0.250000000000     0     
O1       O      0.332900000000     0.166450000000     0.750000000000     0     
C6       C      0.043300000000     0.021650000000     0.750000000000     0     
C5       C      0.090700000000     0.045350000000     0.750000000000     0     
C2       C      0.177600000000     0.088800000000     0.750000000000     0     
C1       C      0.220900000000     0.110450000000     0.750000000000     0     
C6       C      0.623900000000     0.311950000000     0.750000000000     0     
C5       C      0.575600000000     0.287800000000     0.750000000000     0     
C2       C      0.490100000000     0.245050000000     0.750000000000     0     
C1       C      0.443100000000     0.221550000000     0.750000000000     0     
O1       O      0.666660000000     0.333330000000     0.250000000000     0     
O1       O      0.333330000000     0.666660000000     0.750000000000     0     
C7       C      0.042800000000     0.021400000000     0.250000000000     0     
C7       C      0.021400000000     0.042800000000     0.750000000000     0     
C7       C      0.289600000000     0.644800000000     0.250000000000     0     
C7       C      0.355200000000     0.644800000000     0.250000000000     0     
C7       C      0.644800000000     0.289600000000     0.750000000000     0     
C7       C      0.644800000000     0.355200000000     0.750000000000     0     
H3       H      0.448880000000     0.283660000000     0.034300000000     0     
H3       H      0.414010000000     0.322160000000     0.155930000000     0     
H3       H      0.329010000000     0.277550000000     0.044660000000     0     
H2       H      0.478080000000     0.262940000000     0.079550000000     0     
H1       H      0.545290000000     0.279100000000     0.116380000000     0     
H1       H      0.542050000000     0.367940000000     0.196340000000     0     
H2       H      0.478330000000     0.355410000000     0.160900000000     0     
H2       H      0.381030000000     0.355800000000     0.168640000000     0     
H1       H      0.328950000000     0.365260000000     0.208170000000     0     
H1       H      0.237560000000     0.282110000000     0.124670000000     0     
H2       H      0.287160000000     0.270260000000     0.083880000000     0     
H2       H      0.314800000000     0.222390000000     0.000800000000     0     
H1       H      0.422890000000     0.280070000000     0.884080000000     0     
H2       H      0.442100000000     0.295700000000     0.959710000000     0     
H2       H      0.019510000000     0.095170000000     0.314800000000     0     
H1       H      0.060170000000     0.174950000000     0.314980000000     0     
H2       H      0.340240000000     0.571540000000     0.223290000000     0     
H1       H      0.300090000000     0.493970000000     0.223260000000     0     
H1       H      0.299390000000     0.196750000000     0.918240000000     0     
H3       H      0.448880000000     0.165220000000     0.465700000000     0     
H3       H      0.414010000000     0.091850000000     0.344070000000     0     
H3       H      0.329010000000     0.051460000000     0.455340000000     0     
H2       H      0.478080000000     0.215140000000     0.420450000000     0     
H1       H      0.545290000000     0.266190000000     0.383620000000     0     
H1       H      0.542050000000     0.174110000000     0.303660000000     0     
H2       H      0.478330000000     0.122920000000     0.339100000000     0     
H2       H      0.381030000000     0.025230000000     0.331360000000     0     
H1       H      0.036310000000     0.365260000000     0.291830000000     0     
H1       H      0.044550000000     0.282110000000     0.375330000000     0     
H2       H      0.287160000000     0.016900000000     0.416120000000     0     
H2       H      0.314800000000     0.092410000000     0.499200000000     0     
H1       H      0.422890000000     0.142820000000     0.615920000000     0     
H2       H      0.442100000000     0.146400000000     0.540290000000     0     
H2       H      0.075660000000     0.095170000000     0.185200000000     0     
H1       H      0.114780000000     0.174950000000     0.185020000000     0     
H2       H      0.231300000000     0.571540000000     0.276710000000     0     
H1       H      0.193880000000     0.493970000000     0.276740000000     0     
H1       H      0.299390000000     0.102640000000     0.581760000000     0     
H3       H      0.165220000000     0.448880000000     0.965700000000     0     
H3       H      0.091850000000     0.414010000000     0.844070000000     0     
H3       H      0.051460000000     0.329010000000     0.955340000000     0     
H2       H      0.215140000000     0.478080000000     0.920450000000     0     
H1       H      0.266190000000     0.545290000000     0.883620000000     0     
H1       H      0.174110000000     0.542050000000     0.803660000000     0     
H2       H      0.122920000000     0.478330000000     0.839100000000     0     
H2       H      0.025230000000     0.381030000000     0.831360000000     0     
H1       H      0.365260000000     0.036310000000     0.791830000000     0     
H1       H      0.282110000000     0.044550000000     0.875330000000     0     
H2       H      0.016900000000     0.287160000000     0.916120000000     0     
H2       H      0.092410000000     0.314800000000     0.999200000000     0     
H1       H      0.142820000000     0.422890000000     0.115920000000     0     
H2       H      0.146400000000     0.442100000000     0.040290000000     0     
H2       H      0.095170000000     0.075660000000     0.685200000000     0     
H1       H      0.174950000000     0.114780000000     0.685020000000     0     
H2       H      0.571540000000     0.231300000000     0.776710000000     0     
H1       H      0.493970000000     0.193880000000     0.776740000000     0     
H1       H      0.102640000000     0.299390000000     0.081760000000     0     
H3       H      0.283660000000     0.448880000000     0.534300000000     0     
H3       H      0.322160000000     0.414010000000     0.655930000000     0     
H3       H      0.277550000000     0.329010000000     0.544660000000     0     
H2       H      0.262940000000     0.478080000000     0.579550000000     0     
H1       H      0.279100000000     0.545290000000     0.616380000000     0     
H1       H      0.367940000000     0.542050000000     0.696340000000     0     
H2       H      0.355410000000     0.478330000000     0.660900000000     0     
H2       H      0.355800000000     0.381030000000     0.668640000000     0     
H1       H      0.365260000000     0.328950000000     0.708170000000     0     
H1       H      0.282110000000     0.237560000000     0.624670000000     0     
H2       H      0.270260000000     0.287160000000     0.583880000000     0     
H2       H      0.222390000000     0.314800000000     0.500800000000     0     
H1       H      0.280070000000     0.422890000000     0.384080000000     0     
H2       H      0.295700000000     0.442100000000     0.459710000000     0     
H2       H      0.095170000000     0.019510000000     0.814800000000     0     
H1       H      0.174950000000     0.060170000000     0.814980000000     0     
H2       H      0.571540000000     0.340240000000     0.723290000000     0     
H1       H      0.493970000000     0.300090000000     0.723260000000     0     
H1       H      0.196750000000     0.299390000000     0.418240000000     0     
H3       H      0.078310000000     0.038840000000     0.250000000000     0     
H3       H      0.039470000000     0.078310000000     0.750000000000     0     
H3       H      0.254100000000     0.626450000000     0.250000000000     0     
H3       H      0.626450000000     0.372350000000     0.750000000000     0     


