data_MOF-177

_audit_creation_method RASPA-1.0
_audit_creation_date 2025-11-8
_audit_author_name ''

_cell_length_a    74.144
_cell_length_b    74.144
_cell_length_c    30.0333
_cell_angle_alpha 90
_cell_angle_beta  90
_cell_angle_gamma 120
_cell_volume      142983

_symmetry_cell_setting          trigonal
_symmetry_space_group_name_Hall 'P 1'
_symmetry_space_group_name_H-M  'P 1'
_symmetry_Int_Tables_number     1

_symmetry_equiv_pos_as_xyz 'x,y,z'

loop_
_atom_site_label
_atom_site_type_symbol
_atom_site_fract_x
_atom_site_fract_y
_atom_site_fract_z
_atom_site_charge
Zn1      Zn     0.078000000000     0.148000000000     0.198300000000     0          
Zn1      Zn     0.112300000000     0.183150000000     0.260200000000     0          
O2       O      0.185800000000     0.119400000000     0.821400000000     0          
O2       O      0.159250000000     0.089800000000     0.851100000000     0          
O2       O      0.292700000000     0.166150000000     0.227000000000     0          
O2       O      0.307550000000     0.163350000000     0.165300000000     0          
O2       O      0.130150000000     0.176350000000     0.224300000000     0          
O2       O      0.105700000000     0.152350000000     0.181500000000     0          
O2       O      0.059300000000     0.119800000000     0.212100000000     0          
O2       O      0.121450000000     0.212250000000     0.246400000000     0          
C6       C      0.194200000000     0.140000000000     0.033500000000     0          
C7       C      0.212450000000     0.144050000000     0.053600000000     0          
C6       C      0.217450000000     0.151000000000     0.098000000000     0          
C7       C      0.203400000000     0.154600000000     0.120600000000     0          
C6       C      0.184950000000     0.150600000000     0.101800000000     0          
C7       C      0.180350000000     0.142850000000     0.058900000000     0          
C5       C      0.236700000000     0.154100000000     0.118500000000     0          
C4       C      0.245950000000     0.143700000000     0.107000000000     0          
C3       C      0.263800000000     0.147600000000     0.128000000000     0          
C2       C      0.272100000000     0.159850000000     0.160800000000     0          
C3       C      0.263600000000     0.171100000000     0.170300000000     0          
C4       C      0.245850000000     0.167600000000     0.149300000000     0          
C5       C      0.170000000000     0.154600000000     0.124200000000     0          
C4       C      0.173850000000     0.167600000000     0.156500000000     0          
C3       C      0.159150000000     0.170800000000     0.179900000000     0          
C2       C      0.141100000000     0.161250000000     0.170500000000     0          
C3       C      0.135650000000     0.149250000000     0.136500000000     0          
C4       C      0.150050000000     0.146050000000     0.113700000000     0          
C5       C      0.190300000000     0.132950000000     0.985800000000     0          
C4       C      0.170200000000     0.117600000000     0.974500000000     0          
C3       C      0.199250000000     0.131900000000     0.911200000000     0          
C2       C      0.179950000000     0.116050000000     0.900400000000     0          
C4       C      0.203650000000     0.137700000000     0.953100000000     0          
C1       C      0.175200000000     0.108400000000     0.854000000000     0          
C1       C      0.292200000000     0.162350000000     0.182600000000     0          
C1       C      0.126550000000     0.164250000000     0.192800000000     0          
C4       C      0.020500000000     0.056400000000     0.285800000000     0          
C3       C      0.031700000000     0.078550000000     0.285800000000     0          
C4       C      0.153300000000     0.277000000000     0.235400000000     0          
C3       C      0.142500000000     0.256200000000     0.235600000000     0          
C3       C      0.166200000000     0.110200000000     0.929100000000     0          
Zn1      Zn     0.310950000000     0.170350000000     0.277900000000     0          
Zn1      Zn     0.070000000000     0.148000000000     0.301700000000     0          
Zn1      Zn     0.070850000000     0.183150000000     0.239800000000     0          
O2       O      0.185800000000     0.066400000000     0.678600000000     0          
O2       O      0.159250000000     0.069450000000     0.648900000000     0          
O2       O      0.302350000000     0.119250000000     0.300700000000     0          
O2       O      0.291100000000     0.147000000000     0.310200000000     0          
O2       O      0.046200000000     0.176350000000     0.275700000000     0          
O2       O      0.046650000000     0.152350000000     0.318500000000     0          
O2       O      0.060500000000     0.119800000000     0.287900000000     0          
O2       O      0.090800000000     0.212250000000     0.253600000000     0          
C6       C      0.194200000000     0.054200000000     0.466500000000     0          
C7       C      0.212450000000     0.068400000000     0.446400000000     0          
C6       C      0.217450000000     0.066450000000     0.402000000000     0          
C7       C      0.203400000000     0.048800000000     0.379400000000     0          
C6       C      0.184950000000     0.034350000000     0.398200000000     0          
C7       C      0.180350000000     0.037500000000     0.441100000000     0          
C5       C      0.236700000000     0.082600000000     0.381500000000     0          
C4       C      0.245950000000     0.102250000000     0.393000000000     0          
C3       C      0.263800000000     0.116200000000     0.372000000000     0          
C2       C      0.272100000000     0.112250000000     0.339200000000     0          
C3       C      0.263600000000     0.092500000000     0.329700000000     0          
C4       C      0.245850000000     0.078250000000     0.350700000000     0          
C5       C      0.170000000000     0.015400000000     0.375800000000     0          
C4       C      0.173850000000     0.006250000000     0.343500000000     0          
C3       C      0.011650000000     0.170800000000     0.320100000000     0          
C2       C      0.020150000000     0.161250000000     0.329500000000     0          
C3       C      0.013600000000     0.149250000000     0.363500000000     0          
C4       C      0.150050000000     0.004000000000     0.386300000000     0          
C5       C      0.190300000000     0.057350000000     0.514200000000     0          
C4       C      0.170200000000     0.052600000000     0.525500000000     0          
C3       C      0.199250000000     0.067350000000     0.588800000000     0          
C2       C      0.179950000000     0.063900000000     0.599600000000     0          
C4       C      0.203650000000     0.065950000000     0.546900000000     0          
C1       C      0.175200000000     0.066800000000     0.646000000000     0          
C1       C      0.292200000000     0.129850000000     0.317400000000     0          
C1       C      0.037700000000     0.164250000000     0.307200000000     0          
C4       C      0.035900000000     0.056400000000     0.214200000000     0          
C3       C      0.046850000000     0.078550000000     0.214200000000     0          
C4       C      0.123700000000     0.277000000000     0.264600000000     0          
C3       C      0.113700000000     0.256200000000     0.264400000000     0          
C3       C      0.166200000000     0.056000000000     0.570900000000     0          
Zn1      Zn     0.170350000000     0.310950000000     0.777900000000     0          
Zn1      Zn     0.148000000000     0.070000000000     0.801700000000     0          
Zn1      Zn     0.183150000000     0.070850000000     0.739800000000     0          
O2       O      0.066400000000     0.185800000000     0.178600000000     0          
O2       O      0.069450000000     0.159250000000     0.148900000000     0          
O2       O      0.119250000000     0.302350000000     0.800700000000     0          
O2       O      0.147000000000     0.291100000000     0.810200000000     0          
O2       O      0.176350000000     0.046200000000     0.775700000000     0          
O2       O      0.152350000000     0.046650000000     0.818500000000     0          
O2       O      0.119800000000     0.060500000000     0.787900000000     0          
O2       O      0.212250000000     0.090800000000     0.753600000000     0          
C6       C      0.054200000000     0.194200000000     0.966500000000     0          
C7       C      0.068400000000     0.212450000000     0.946400000000     0          
C6       C      0.066450000000     0.217450000000     0.902000000000     0          
C7       C      0.048800000000     0.203400000000     0.879400000000     0          
C6       C      0.034350000000     0.184950000000     0.898200000000     0          
C7       C      0.037500000000     0.180350000000     0.941100000000     0          
C5       C      0.082600000000     0.236700000000     0.881500000000     0          
C4       C      0.102250000000     0.245950000000     0.893000000000     0          
C3       C      0.116200000000     0.263800000000     0.872000000000     0          
C2       C      0.112250000000     0.272100000000     0.839200000000     0          
C3       C      0.092500000000     0.263600000000     0.829700000000     0          
C4       C      0.078250000000     0.245850000000     0.850700000000     0          
C5       C      0.015400000000     0.170000000000     0.875800000000     0          
C4       C      0.006250000000     0.173850000000     0.843500000000     0          
C3       C      0.170800000000     0.011650000000     0.820100000000     0          
C2       C      0.161250000000     0.020150000000     0.829500000000     0          
C3       C      0.149250000000     0.013600000000     0.863500000000     0          
C4       C      0.004000000000     0.150050000000     0.886300000000     0          
C5       C      0.057350000000     0.190300000000     0.014200000000     0          
C4       C      0.052600000000     0.170200000000     0.025500000000     0          
C3       C      0.067350000000     0.199250000000     0.088800000000     0          
C2       C      0.063900000000     0.179950000000     0.099600000000     0          
C4       C      0.065950000000     0.203650000000     0.046900000000     0          
C1       C      0.066800000000     0.175200000000     0.146000000000     0          
C1       C      0.129850000000     0.292200000000     0.817400000000     0          
C1       C      0.164250000000     0.037700000000     0.807200000000     0          
C4       C      0.056400000000     0.035900000000     0.714200000000     0          
C3       C      0.078550000000     0.046850000000     0.714200000000     0          
C4       C      0.277000000000     0.123700000000     0.764600000000     0          
C3       C      0.256200000000     0.113700000000     0.764400000000     0          
C3       C      0.056000000000     0.166200000000     0.070900000000     0          
Zn1      Zn     0.148000000000     0.078000000000     0.698300000000     0          
Zn1      Zn     0.183150000000     0.112300000000     0.760200000000     0          
O2       O      0.119400000000     0.185800000000     0.321400000000     0          
O2       O      0.089800000000     0.159250000000     0.351100000000     0          
O2       O      0.166150000000     0.292700000000     0.727000000000     0          
O2       O      0.163350000000     0.307550000000     0.665300000000     0          
O2       O      0.176350000000     0.130150000000     0.724300000000     0          
O2       O      0.152350000000     0.105700000000     0.681500000000     0          
O2       O      0.119800000000     0.059300000000     0.712100000000     0          
O2       O      0.212250000000     0.121450000000     0.746400000000     0          
C6       C      0.140000000000     0.194200000000     0.533500000000     0          
C7       C      0.144050000000     0.212450000000     0.553600000000     0          
C6       C      0.151000000000     0.217450000000     0.598000000000     0          
C7       C      0.154600000000     0.203400000000     0.620600000000     0          
C6       C      0.150600000000     0.184950000000     0.601800000000     0          
C7       C      0.142850000000     0.180350000000     0.558900000000     0          
C5       C      0.154100000000     0.236700000000     0.618500000000     0          
C4       C      0.143700000000     0.245950000000     0.607000000000     0          
C3       C      0.147600000000     0.263800000000     0.628000000000     0          
C2       C      0.159850000000     0.272100000000     0.660800000000     0          
C3       C      0.171100000000     0.263600000000     0.670300000000     0          
C4       C      0.167600000000     0.245850000000     0.649300000000     0          
C5       C      0.154600000000     0.170000000000     0.624200000000     0          
C4       C      0.167600000000     0.173850000000     0.656500000000     0          
C3       C      0.170800000000     0.159150000000     0.679900000000     0          
C2       C      0.161250000000     0.141100000000     0.670500000000     0          
C3       C      0.149250000000     0.135650000000     0.636500000000     0          
C4       C      0.146050000000     0.150050000000     0.613700000000     0          
C5       C      0.132950000000     0.190300000000     0.485800000000     0          
C4       C      0.117600000000     0.170200000000     0.474500000000     0          
C3       C      0.131900000000     0.199250000000     0.411200000000     0          
C2       C      0.116050000000     0.179950000000     0.400400000000     0          
C4       C      0.137700000000     0.203650000000     0.453100000000     0          
C1       C      0.108400000000     0.175200000000     0.354000000000     0          
C1       C      0.162350000000     0.292200000000     0.682600000000     0          
C1       C      0.164250000000     0.126550000000     0.692800000000     0          
C4       C      0.056400000000     0.020500000000     0.785800000000     0          
C3       C      0.078550000000     0.031700000000     0.785800000000     0          
C4       C      0.277000000000     0.153300000000     0.735400000000     0          
C3       C      0.256200000000     0.142500000000     0.735600000000     0          
C3       C      0.110200000000     0.166200000000     0.429100000000     0          
Zn1      Zn     0.333330000000     0.166665000000     0.190400000000     0          
Zn1      Zn     0.166665000000     0.333330000000     0.690400000000     0          
O1       O      0.083225000000     0.166450000000     0.250000000000     0          
C6       C      0.010825000000     0.021650000000     0.250000000000     0          
C5       C      0.022675000000     0.045350000000     0.250000000000     0          
C2       C      0.044400000000     0.088800000000     0.250000000000     0          
C1       C      0.055225000000     0.110450000000     0.250000000000     0          
C6       C      0.155975000000     0.311950000000     0.250000000000     0          
C5       C      0.143900000000     0.287800000000     0.250000000000     0          
C2       C      0.122525000000     0.245050000000     0.250000000000     0          
C1       C      0.110775000000     0.221550000000     0.250000000000     0          
O1       O      0.166450000000     0.083225000000     0.750000000000     0          
C6       C      0.021650000000     0.010825000000     0.750000000000     0          
C5       C      0.045350000000     0.022675000000     0.750000000000     0          
C2       C      0.088800000000     0.044400000000     0.750000000000     0          
C1       C      0.110450000000     0.055225000000     0.750000000000     0          
C6       C      0.311950000000     0.155975000000     0.750000000000     0          
C5       C      0.287800000000     0.143900000000     0.750000000000     0          
C2       C      0.245050000000     0.122525000000     0.750000000000     0          
C1       C      0.221550000000     0.110775000000     0.750000000000     0          
O1       O      0.333330000000     0.166665000000     0.250000000000     0          
O1       O      0.166665000000     0.333330000000     0.750000000000     0          
C7       C      0.021400000000     0.010700000000     0.250000000000     0          
C7       C      0.010700000000     0.021400000000     0.750000000000     0          
C7       C      0.144800000000     0.322400000000     0.250000000000     0          
C7       C      0.177600000000     0.322400000000     0.250000000000     0          
C7       C      0.322400000000     0.144800000000     0.750000000000     0          
C7       C      0.322400000000     0.177600000000     0.750000000000     0          
H3       H      0.224440000000     0.141830000000     0.034300000000     0          
H3       H      0.207005000000     0.161080000000     0.155930000000     0          
H3       H      0.164505000000     0.138775000000     0.044660000000     0          
H2       H      0.239040000000     0.131470000000     0.079550000000     0          
H1       H      0.272645000000     0.139550000000     0.116380000000     0          
H1       H      0.271025000000     0.183970000000     0.196340000000     0          
H2       H      0.239165000000     0.177705000000     0.160900000000     0          
H2       H      0.190515000000     0.177900000000     0.168640000000     0          
H1       H      0.164475000000     0.182630000000     0.208170000000     0          
H1       H      0.118780000000     0.141055000000     0.124670000000     0          
H2       H      0.143580000000     0.135130000000     0.083880000000     0          
H2       H      0.157400000000     0.111195000000     0.000800000000     0          
H1       H      0.211445000000     0.140035000000     0.884080000000     0          
H2       H      0.221050000000     0.147850000000     0.959710000000     0          
H2       H      0.009755000000     0.047585000000     0.314800000000     0          
H1       H      0.030085000000     0.087475000000     0.314980000000     0          
H2       H      0.170120000000     0.285770000000     0.223290000000     0          
H1       H      0.150045000000     0.246985000000     0.223260000000     0          
H1       H      0.149695000000     0.098375000000     0.918240000000     0          
H3       H      0.224440000000     0.082610000000     0.465700000000     0          
H3       H      0.207005000000     0.045925000000     0.344070000000     0          
H3       H      0.164505000000     0.025730000000     0.455340000000     0          
H2       H      0.239040000000     0.107570000000     0.420450000000     0          
H1       H      0.272645000000     0.133095000000     0.383620000000     0          
H1       H      0.271025000000     0.087055000000     0.303660000000     0          
H2       H      0.239165000000     0.061460000000     0.339100000000     0          
H2       H      0.190515000000     0.012615000000     0.331360000000     0          
H1       H      0.018155000000     0.182630000000     0.291830000000     0          
H1       H      0.022275000000     0.141055000000     0.375330000000     0          
H2       H      0.143580000000     0.008450000000     0.416120000000     0          
H2       H      0.157400000000     0.046205000000     0.499200000000     0          
H1       H      0.211445000000     0.071410000000     0.615920000000     0          
H2       H      0.221050000000     0.073200000000     0.540290000000     0          
H2       H      0.037830000000     0.047585000000     0.185200000000     0          
H1       H      0.057390000000     0.087475000000     0.185020000000     0          
H2       H      0.115650000000     0.285770000000     0.276710000000     0          
H1       H      0.096940000000     0.246985000000     0.276740000000     0          
H1       H      0.149695000000     0.051320000000     0.581760000000     0          
H3       H      0.082610000000     0.224440000000     0.965700000000     0          
H3       H      0.045925000000     0.207005000000     0.844070000000     0          
H3       H      0.025730000000     0.164505000000     0.955340000000     0          
H2       H      0.107570000000     0.239040000000     0.920450000000     0          
H1       H      0.133095000000     0.272645000000     0.883620000000     0          
H1       H      0.087055000000     0.271025000000     0.803660000000     0          
H2       H      0.061460000000     0.239165000000     0.839100000000     0          
H2       H      0.012615000000     0.190515000000     0.831360000000     0          
H1       H      0.182630000000     0.018155000000     0.791830000000     0          
H1       H      0.141055000000     0.022275000000     0.875330000000     0          
H2       H      0.008450000000     0.143580000000     0.916120000000     0          
H2       H      0.046205000000     0.157400000000     0.999200000000     0          
H1       H      0.071410000000     0.211445000000     0.115920000000     0          
H2       H      0.073200000000     0.221050000000     0.040290000000     0          
H2       H      0.047585000000     0.037830000000     0.685200000000     0          
H1       H      0.087475000000     0.057390000000     0.685020000000     0          
H2       H      0.285770000000     0.115650000000     0.776710000000     0          
H1       H      0.246985000000     0.096940000000     0.776740000000     0          
H1       H      0.051320000000     0.149695000000     0.081760000000     0          
H3       H      0.141830000000     0.224440000000     0.534300000000     0          
H3       H      0.161080000000     0.207005000000     0.655930000000     0          
H3       H      0.138775000000     0.164505000000     0.544660000000     0          
H2       H      0.131470000000     0.239040000000     0.579550000000     0          
H1       H      0.139550000000     0.272645000000     0.616380000000     0          
H1       H      0.183970000000     0.271025000000     0.696340000000     0          
H2       H      0.177705000000     0.239165000000     0.660900000000     0          
H2       H      0.177900000000     0.190515000000     0.668640000000     0          
H1       H      0.182630000000     0.164475000000     0.708170000000     0          
H1       H      0.141055000000     0.118780000000     0.624670000000     0          
H2       H      0.135130000000     0.143580000000     0.583880000000     0          
H2       H      0.111195000000     0.157400000000     0.500800000000     0          
H1       H      0.140035000000     0.211445000000     0.384080000000     0          
H2       H      0.147850000000     0.221050000000     0.459710000000     0          
H2       H      0.047585000000     0.009755000000     0.814800000000     0          
H1       H      0.087475000000     0.030085000000     0.814980000000     0          
H2       H      0.285770000000     0.170120000000     0.723290000000     0          
H1       H      0.246985000000     0.150045000000     0.723260000000     0          
H1       H      0.098375000000     0.149695000000     0.418240000000     0          
H3       H      0.039155000000     0.019420000000     0.250000000000     0          
H3       H      0.019735000000     0.039155000000     0.750000000000     0          
H3       H      0.127050000000     0.313225000000     0.250000000000     0          
H3       H      0.313225000000     0.186175000000     0.750000000000     0          
Zn1      Zn     0.352000000000     0.430000000000     0.198300000000     0          
Zn1      Zn     0.316850000000     0.429150000000     0.260200000000     0          
O2       O      0.380600000000     0.066400000000     0.821400000000     0          
O2       O      0.410200000000     0.069450000000     0.851100000000     0          
O2       O      0.333850000000     0.126550000000     0.227000000000     0          
O2       O      0.336650000000     0.144200000000     0.165300000000     0          
O2       O      0.323650000000     0.453800000000     0.224300000000     0          
O2       O      0.347650000000     0.453350000000     0.181500000000     0          
O2       O      0.380200000000     0.439500000000     0.212100000000     0          
O2       O      0.287750000000     0.409200000000     0.246400000000     0          
C6       C      0.360000000000     0.054200000000     0.033500000000     0          
C7       C      0.355950000000     0.068400000000     0.053600000000     0          
C6       C      0.349000000000     0.066450000000     0.098000000000     0          
C7       C      0.345400000000     0.048800000000     0.120600000000     0          
C6       C      0.349400000000     0.034350000000     0.101800000000     0          
C7       C      0.357150000000     0.037500000000     0.058900000000     0          
C5       C      0.345900000000     0.082600000000     0.118500000000     0          
C4       C      0.356300000000     0.102250000000     0.107000000000     0          
C3       C      0.352400000000     0.116200000000     0.128000000000     0          
C2       C      0.340150000000     0.112250000000     0.160800000000     0          
C3       C      0.328900000000     0.092500000000     0.170300000000     0          
C4       C      0.332400000000     0.078250000000     0.149300000000     0          
C5       C      0.345400000000     0.015400000000     0.124200000000     0          
C4       C      0.332400000000     0.006250000000     0.156500000000     0          
C3       C      0.329200000000     0.488350000000     0.179900000000     0          
C2       C      0.338750000000     0.479850000000     0.170500000000     0          
C3       C      0.350750000000     0.486400000000     0.136500000000     0          
C4       C      0.353950000000     0.004000000000     0.113700000000     0          
C5       C      0.367050000000     0.057350000000     0.985800000000     0          
C4       C      0.382400000000     0.052600000000     0.974500000000     0          
C3       C      0.368100000000     0.067350000000     0.911200000000     0          
C2       C      0.383950000000     0.063900000000     0.900400000000     0          
C4       C      0.362300000000     0.065950000000     0.953100000000     0          
C1       C      0.391600000000     0.066800000000     0.854000000000     0          
C1       C      0.337650000000     0.129850000000     0.182600000000     0          
C1       C      0.335750000000     0.462300000000     0.192800000000     0          
C4       C      0.443600000000     0.464100000000     0.285800000000     0          
C3       C      0.421450000000     0.453150000000     0.285800000000     0          
C4       C      0.223000000000     0.376300000000     0.235400000000     0          
C3       C      0.243800000000     0.386300000000     0.235600000000     0          
C3       C      0.389800000000     0.056000000000     0.929100000000     0          
Zn1      Zn     0.329650000000     0.140600000000     0.277900000000     0          
Zn1      Zn     0.352000000000     0.422000000000     0.301700000000     0          
Zn1      Zn     0.316850000000     0.387700000000     0.239800000000     0          
O2       O      0.433600000000     0.119400000000     0.678600000000     0          
O2       O      0.430550000000     0.089800000000     0.648900000000     0          
O2       O      0.380750000000     0.183100000000     0.300700000000     0          
O2       O      0.353000000000     0.144100000000     0.310200000000     0          
O2       O      0.323650000000     0.369850000000     0.275700000000     0          
O2       O      0.347650000000     0.394300000000     0.318500000000     0          
O2       O      0.380200000000     0.440700000000     0.287900000000     0          
O2       O      0.287750000000     0.378550000000     0.253600000000     0          
C6       C      0.445800000000     0.140000000000     0.466500000000     0          
C7       C      0.431600000000     0.144050000000     0.446400000000     0          
C6       C      0.433550000000     0.151000000000     0.402000000000     0          
C7       C      0.451200000000     0.154600000000     0.379400000000     0          
C6       C      0.465650000000     0.150600000000     0.398200000000     0          
C7       C      0.462500000000     0.142850000000     0.441100000000     0          
C5       C      0.417400000000     0.154100000000     0.381500000000     0          
C4       C      0.397750000000     0.143700000000     0.393000000000     0          
C3       C      0.383800000000     0.147600000000     0.372000000000     0          
C2       C      0.387750000000     0.159850000000     0.339200000000     0          
C3       C      0.407500000000     0.171100000000     0.329700000000     0          
C4       C      0.421750000000     0.167600000000     0.350700000000     0          
C5       C      0.484600000000     0.154600000000     0.375800000000     0          
C4       C      0.493750000000     0.167600000000     0.343500000000     0          
C3       C      0.329200000000     0.340850000000     0.320100000000     0          
C2       C      0.338750000000     0.358900000000     0.329500000000     0          
C3       C      0.350750000000     0.364350000000     0.363500000000     0          
C4       C      0.496000000000     0.146050000000     0.386300000000     0          
C5       C      0.442650000000     0.132950000000     0.514200000000     0          
C4       C      0.447400000000     0.117600000000     0.525500000000     0          
C3       C      0.432650000000     0.131900000000     0.588800000000     0          
C2       C      0.436100000000     0.116050000000     0.599600000000     0          
C4       C      0.434050000000     0.137700000000     0.546900000000     0          
C1       C      0.433200000000     0.108400000000     0.646000000000     0          
C1       C      0.370150000000     0.162350000000     0.317400000000     0          
C1       C      0.335750000000     0.373450000000     0.307200000000     0          
C4       C      0.443600000000     0.479500000000     0.214200000000     0          
C3       C      0.421450000000     0.468300000000     0.214200000000     0          
C4       C      0.223000000000     0.346700000000     0.264600000000     0          
C3       C      0.243800000000     0.357500000000     0.264400000000     0          
C3       C      0.444000000000     0.110200000000     0.570900000000     0          
Zn1      Zn     0.189050000000     0.359400000000     0.777900000000     0          
Zn1      Zn     0.430000000000     0.078000000000     0.801700000000     0          
Zn1      Zn     0.429150000000     0.112300000000     0.739800000000     0          
O2       O      0.314200000000     0.380600000000     0.178600000000     0          
O2       O      0.340750000000     0.410200000000     0.148900000000     0          
O2       O      0.197650000000     0.316900000000     0.800700000000     0          
O2       O      0.208900000000     0.355900000000     0.810200000000     0          
O2       O      0.453800000000     0.130150000000     0.775700000000     0          
O2       O      0.453350000000     0.105700000000     0.818500000000     0          
O2       O      0.439500000000     0.059300000000     0.787900000000     0          
O2       O      0.409200000000     0.121450000000     0.753600000000     0          
C6       C      0.305800000000     0.360000000000     0.966500000000     0          
C7       C      0.287550000000     0.355950000000     0.946400000000     0          
C6       C      0.282550000000     0.349000000000     0.902000000000     0          
C7       C      0.296600000000     0.345400000000     0.879400000000     0          
C6       C      0.315050000000     0.349400000000     0.898200000000     0          
C7       C      0.319650000000     0.357150000000     0.941100000000     0          
C5       C      0.263300000000     0.345900000000     0.881500000000     0          
C4       C      0.254050000000     0.356300000000     0.893000000000     0          
C3       C      0.236200000000     0.352400000000     0.872000000000     0          
C2       C      0.227900000000     0.340150000000     0.839200000000     0          
C3       C      0.236400000000     0.328900000000     0.829700000000     0          
C4       C      0.254150000000     0.332400000000     0.850700000000     0          
C5       C      0.330000000000     0.345400000000     0.875800000000     0          
C4       C      0.326150000000     0.332400000000     0.843500000000     0          
C3       C      0.488350000000     0.159150000000     0.820100000000     0          
C2       C      0.479850000000     0.141100000000     0.829500000000     0          
C3       C      0.486400000000     0.135650000000     0.863500000000     0          
C4       C      0.349950000000     0.353950000000     0.886300000000     0          
C5       C      0.309700000000     0.367050000000     0.014200000000     0          
C4       C      0.329800000000     0.382400000000     0.025500000000     0          
C3       C      0.300750000000     0.368100000000     0.088800000000     0          
C2       C      0.320050000000     0.383950000000     0.099600000000     0          
C4       C      0.296350000000     0.362300000000     0.046900000000     0          
C1       C      0.324800000000     0.391600000000     0.146000000000     0          
C1       C      0.207800000000     0.337650000000     0.817400000000     0          
C1       C      0.462300000000     0.126550000000     0.807200000000     0          
C4       C      0.464100000000     0.020500000000     0.714200000000     0          
C3       C      0.453150000000     0.031700000000     0.714200000000     0          
C4       C      0.376300000000     0.153300000000     0.764600000000     0          
C3       C      0.386300000000     0.142500000000     0.764400000000     0          
C3       C      0.333800000000     0.389800000000     0.070900000000     0          
Zn1      Zn     0.422000000000     0.070000000000     0.698300000000     0          
Zn1      Zn     0.387700000000     0.070850000000     0.760200000000     0          
O2       O      0.314200000000     0.433600000000     0.321400000000     0          
O2       O      0.340750000000     0.430550000000     0.351100000000     0          
O2       O      0.207300000000     0.373450000000     0.727000000000     0          
O2       O      0.192450000000     0.355800000000     0.665300000000     0          
O2       O      0.369850000000     0.046200000000     0.724300000000     0          
O2       O      0.394300000000     0.046650000000     0.681500000000     0          
O2       O      0.440700000000     0.060500000000     0.712100000000     0          
O2       O      0.378550000000     0.090800000000     0.746400000000     0          
C6       C      0.305800000000     0.445800000000     0.533500000000     0          
C7       C      0.287550000000     0.431600000000     0.553600000000     0          
C6       C      0.282550000000     0.433550000000     0.598000000000     0          
C7       C      0.296600000000     0.451200000000     0.620600000000     0          
C6       C      0.315050000000     0.465650000000     0.601800000000     0          
C7       C      0.319650000000     0.462500000000     0.558900000000     0          
C5       C      0.263300000000     0.417400000000     0.618500000000     0          
C4       C      0.254050000000     0.397750000000     0.607000000000     0          
C3       C      0.236200000000     0.383800000000     0.628000000000     0          
C2       C      0.227900000000     0.387750000000     0.660800000000     0          
C3       C      0.236400000000     0.407500000000     0.670300000000     0          
C4       C      0.254150000000     0.421750000000     0.649300000000     0          
C5       C      0.330000000000     0.484600000000     0.624200000000     0          
C4       C      0.326150000000     0.493750000000     0.656500000000     0          
C3       C      0.340850000000     0.011650000000     0.679900000000     0          
C2       C      0.358900000000     0.020150000000     0.670500000000     0          
C3       C      0.364350000000     0.013600000000     0.636500000000     0          
C4       C      0.349950000000     0.496000000000     0.613700000000     0          
C5       C      0.309700000000     0.442650000000     0.485800000000     0          
C4       C      0.329800000000     0.447400000000     0.474500000000     0          
C3       C      0.300750000000     0.432650000000     0.411200000000     0          
C2       C      0.320050000000     0.436100000000     0.400400000000     0          
C4       C      0.296350000000     0.434050000000     0.453100000000     0          
C1       C      0.324800000000     0.433200000000     0.354000000000     0          
C1       C      0.207800000000     0.370150000000     0.682600000000     0          
C1       C      0.373450000000     0.037700000000     0.692800000000     0          
C4       C      0.479500000000     0.035900000000     0.785800000000     0          
C3       C      0.468300000000     0.046850000000     0.785800000000     0          
C4       C      0.346700000000     0.123700000000     0.735400000000     0          
C3       C      0.357500000000     0.113700000000     0.735600000000     0          
C3       C      0.333800000000     0.444000000000     0.429100000000     0          
O1       O      0.333550000000     0.416775000000     0.250000000000     0          
C6       C      0.478350000000     0.489175000000     0.250000000000     0          
C5       C      0.454650000000     0.477325000000     0.250000000000     0          
C2       C      0.411200000000     0.455600000000     0.250000000000     0          
C1       C      0.389550000000     0.444775000000     0.250000000000     0          
C6       C      0.188050000000     0.344025000000     0.250000000000     0          
C5       C      0.212200000000     0.356100000000     0.250000000000     0          
C2       C      0.254950000000     0.377475000000     0.250000000000     0          
C1       C      0.278450000000     0.389225000000     0.250000000000     0          
O1       O      0.416775000000     0.083225000000     0.750000000000     0          
C6       C      0.489175000000     0.010825000000     0.750000000000     0          
C5       C      0.477325000000     0.022675000000     0.750000000000     0          
C2       C      0.455600000000     0.044400000000     0.750000000000     0          
C1       C      0.444775000000     0.055225000000     0.750000000000     0          
C6       C      0.344025000000     0.155975000000     0.750000000000     0          
C5       C      0.356100000000     0.143900000000     0.750000000000     0          
C2       C      0.377475000000     0.122525000000     0.750000000000     0          
C1       C      0.389225000000     0.110775000000     0.750000000000     0          
C7       C      0.489300000000     0.010700000000     0.250000000000     0          
C7       C      0.478600000000     0.489300000000     0.750000000000     0          
C7       C      0.177600000000     0.355200000000     0.250000000000     0          
C7       C      0.355200000000     0.177600000000     0.750000000000     0          
H3       H      0.358170000000     0.082610000000     0.034300000000     0          
H3       H      0.338920000000     0.045925000000     0.155930000000     0          
H3       H      0.361225000000     0.025730000000     0.044660000000     0          
H2       H      0.368530000000     0.107570000000     0.079550000000     0          
H1       H      0.360450000000     0.133095000000     0.116380000000     0          
H1       H      0.316030000000     0.087055000000     0.196340000000     0          
H2       H      0.322295000000     0.061460000000     0.160900000000     0          
H2       H      0.322100000000     0.012615000000     0.168640000000     0          
H1       H      0.317370000000     0.481845000000     0.208170000000     0          
H1       H      0.358945000000     0.477725000000     0.124670000000     0          
H2       H      0.364870000000     0.008450000000     0.083880000000     0          
H2       H      0.388805000000     0.046205000000     0.000800000000     0          
H1       H      0.359965000000     0.071410000000     0.884080000000     0          
H2       H      0.352150000000     0.073200000000     0.959710000000     0          
H2       H      0.452415000000     0.462170000000     0.314800000000     0          
H1       H      0.412525000000     0.442610000000     0.314980000000     0          
H2       H      0.214230000000     0.384350000000     0.223290000000     0          
H1       H      0.253015000000     0.403060000000     0.223260000000     0          
H1       H      0.401625000000     0.051320000000     0.918240000000     0          
H3       H      0.417390000000     0.141830000000     0.465700000000     0          
H3       H      0.454075000000     0.161080000000     0.344070000000     0          
H3       H      0.474270000000     0.138775000000     0.455340000000     0          
H2       H      0.392430000000     0.131470000000     0.420450000000     0          
H1       H      0.366905000000     0.139550000000     0.383620000000     0          
H1       H      0.412945000000     0.183970000000     0.303660000000     0          
H2       H      0.438540000000     0.177705000000     0.339100000000     0          
H2       H      0.487385000000     0.177900000000     0.331360000000     0          
H1       H      0.317370000000     0.335525000000     0.291830000000     0          
H1       H      0.358945000000     0.381220000000     0.375330000000     0          
H2       H      0.491550000000     0.135130000000     0.416120000000     0          
H2       H      0.453795000000     0.111195000000     0.499200000000     0          
H1       H      0.428590000000     0.140035000000     0.615920000000     0          
H2       H      0.426800000000     0.147850000000     0.540290000000     0          
H2       H      0.452415000000     0.490245000000     0.185200000000     0          
H1       H      0.412525000000     0.469915000000     0.185020000000     0          
H2       H      0.214230000000     0.329880000000     0.276710000000     0          
H1       H      0.253015000000     0.349955000000     0.276740000000     0          
H1       H      0.448680000000     0.098375000000     0.581760000000     0          
H3       H      0.275560000000     0.358170000000     0.965700000000     0          
H3       H      0.292995000000     0.338920000000     0.844070000000     0          
H3       H      0.335495000000     0.361225000000     0.955340000000     0          
H2       H      0.260960000000     0.368530000000     0.920450000000     0          
H1       H      0.227355000000     0.360450000000     0.883620000000     0          
H1       H      0.228975000000     0.316030000000     0.803660000000     0          
H2       H      0.260835000000     0.322295000000     0.839100000000     0          
H2       H      0.309485000000     0.322100000000     0.831360000000     0          
H1       H      0.481845000000     0.164475000000     0.791830000000     0          
H1       H      0.477725000000     0.118780000000     0.875330000000     0          
H2       H      0.356420000000     0.364870000000     0.916120000000     0          
H2       H      0.342600000000     0.388805000000     0.999200000000     0          
H1       H      0.288555000000     0.359965000000     0.115920000000     0          
H2       H      0.278950000000     0.352150000000     0.040290000000     0          
H2       H      0.462170000000     0.009755000000     0.685200000000     0          
H1       H      0.442610000000     0.030085000000     0.685020000000     0          
H2       H      0.384350000000     0.170120000000     0.776710000000     0          
H1       H      0.403060000000     0.150045000000     0.776740000000     0          
H1       H      0.350305000000     0.401625000000     0.081760000000     0          
H3       H      0.275560000000     0.417390000000     0.534300000000     0          
H3       H      0.292995000000     0.454075000000     0.655930000000     0          
H3       H      0.335495000000     0.474270000000     0.544660000000     0          
H2       H      0.260960000000     0.392430000000     0.579550000000     0          
H1       H      0.227355000000     0.366905000000     0.616380000000     0          
H1       H      0.228975000000     0.412945000000     0.696340000000     0          
H2       H      0.260835000000     0.438540000000     0.660900000000     0          
H2       H      0.309485000000     0.487385000000     0.668640000000     0          
H1       H      0.335525000000     0.018155000000     0.708170000000     0          
H1       H      0.381220000000     0.022275000000     0.624670000000     0          
H2       H      0.356420000000     0.491550000000     0.583880000000     0          
H2       H      0.342600000000     0.453795000000     0.500800000000     0          
H1       H      0.288555000000     0.428590000000     0.384080000000     0          
H2       H      0.278950000000     0.426800000000     0.459710000000     0          
H2       H      0.490245000000     0.037830000000     0.814800000000     0          
H1       H      0.469915000000     0.057390000000     0.814980000000     0          
H2       H      0.329880000000     0.115650000000     0.723290000000     0          
H1       H      0.349955000000     0.096940000000     0.723260000000     0          
H1       H      0.350305000000     0.448680000000     0.418240000000     0          
H3       H      0.480580000000     0.019735000000     0.250000000000     0          
H3       H      0.460845000000     0.480580000000     0.750000000000     0          
H3       H      0.186775000000     0.313825000000     0.250000000000     0          
H3       H      0.313825000000     0.127050000000     0.750000000000     0          
Zn1      Zn     0.070000000000     0.422000000000     0.198300000000     0          
Zn1      Zn     0.070850000000     0.387700000000     0.260200000000     0          
O2       O      0.433600000000     0.314200000000     0.821400000000     0          
O2       O      0.430550000000     0.340750000000     0.851100000000     0          
O2       O      0.373450000000     0.207300000000     0.227000000000     0          
O2       O      0.355800000000     0.192450000000     0.165300000000     0          
O2       O      0.046200000000     0.369850000000     0.224300000000     0          
O2       O      0.046650000000     0.394300000000     0.181500000000     0          
O2       O      0.060500000000     0.440700000000     0.212100000000     0          
O2       O      0.090800000000     0.378550000000     0.246400000000     0          
C6       C      0.445800000000     0.305800000000     0.033500000000     0          
C7       C      0.431600000000     0.287550000000     0.053600000000     0          
C6       C      0.433550000000     0.282550000000     0.098000000000     0          
C7       C      0.451200000000     0.296600000000     0.120600000000     0          
C6       C      0.465650000000     0.315050000000     0.101800000000     0          
C7       C      0.462500000000     0.319650000000     0.058900000000     0          
C5       C      0.417400000000     0.263300000000     0.118500000000     0          
C4       C      0.397750000000     0.254050000000     0.107000000000     0          
C3       C      0.383800000000     0.236200000000     0.128000000000     0          
C2       C      0.387750000000     0.227900000000     0.160800000000     0          
C3       C      0.407500000000     0.236400000000     0.170300000000     0          
C4       C      0.421750000000     0.254150000000     0.149300000000     0          
C5       C      0.484600000000     0.330000000000     0.124200000000     0          
C4       C      0.493750000000     0.326150000000     0.156500000000     0          
C3       C      0.011650000000     0.340850000000     0.179900000000     0          
C2       C      0.020150000000     0.358900000000     0.170500000000     0          
C3       C      0.013600000000     0.364350000000     0.136500000000     0          
C4       C      0.496000000000     0.349950000000     0.113700000000     0          
C5       C      0.442650000000     0.309700000000     0.985800000000     0          
C4       C      0.447400000000     0.329800000000     0.974500000000     0          
C3       C      0.432650000000     0.300750000000     0.911200000000     0          
C2       C      0.436100000000     0.320050000000     0.900400000000     0          
C4       C      0.434050000000     0.296350000000     0.953100000000     0          
C1       C      0.433200000000     0.324800000000     0.854000000000     0          
C1       C      0.370150000000     0.207800000000     0.182600000000     0          
C1       C      0.037700000000     0.373450000000     0.192800000000     0          
C4       C      0.035900000000     0.479500000000     0.285800000000     0          
C3       C      0.046850000000     0.468300000000     0.285800000000     0          
C4       C      0.123700000000     0.346700000000     0.235400000000     0          
C3       C      0.113700000000     0.357500000000     0.235600000000     0          
C3       C      0.444000000000     0.333800000000     0.929100000000     0          
Zn1      Zn     0.359400000000     0.189050000000     0.277900000000     0          
Zn1      Zn     0.078000000000     0.430000000000     0.301700000000     0          
Zn1      Zn     0.112300000000     0.429150000000     0.239800000000     0          
O2       O      0.380600000000     0.314200000000     0.678600000000     0          
O2       O      0.410200000000     0.340750000000     0.648900000000     0          
O2       O      0.316900000000     0.197650000000     0.300700000000     0          
O2       O      0.355900000000     0.208900000000     0.310200000000     0          
O2       O      0.130150000000     0.453800000000     0.275700000000     0          
O2       O      0.105700000000     0.453350000000     0.318500000000     0          
O2       O      0.059300000000     0.439500000000     0.287900000000     0          
O2       O      0.121450000000     0.409200000000     0.253600000000     0          
C6       C      0.360000000000     0.305800000000     0.466500000000     0          
C7       C      0.355950000000     0.287550000000     0.446400000000     0          
C6       C      0.349000000000     0.282550000000     0.402000000000     0          
C7       C      0.345400000000     0.296600000000     0.379400000000     0          
C6       C      0.349400000000     0.315050000000     0.398200000000     0          
C7       C      0.357150000000     0.319650000000     0.441100000000     0          
C5       C      0.345900000000     0.263300000000     0.381500000000     0          
C4       C      0.356300000000     0.254050000000     0.393000000000     0          
C3       C      0.352400000000     0.236200000000     0.372000000000     0          
C2       C      0.340150000000     0.227900000000     0.339200000000     0          
C3       C      0.328900000000     0.236400000000     0.329700000000     0          
C4       C      0.332400000000     0.254150000000     0.350700000000     0          
C5       C      0.345400000000     0.330000000000     0.375800000000     0          
C4       C      0.332400000000     0.326150000000     0.343500000000     0          
C3       C      0.159150000000     0.488350000000     0.320100000000     0          
C2       C      0.141100000000     0.479850000000     0.329500000000     0          
C3       C      0.135650000000     0.486400000000     0.363500000000     0          
C4       C      0.353950000000     0.349950000000     0.386300000000     0          
C5       C      0.367050000000     0.309700000000     0.514200000000     0          
C4       C      0.382400000000     0.329800000000     0.525500000000     0          
C3       C      0.368100000000     0.300750000000     0.588800000000     0          
C2       C      0.383950000000     0.320050000000     0.599600000000     0          
C4       C      0.362300000000     0.296350000000     0.546900000000     0          
C1       C      0.391600000000     0.324800000000     0.646000000000     0          
C1       C      0.337650000000     0.207800000000     0.317400000000     0          
C1       C      0.126550000000     0.462300000000     0.307200000000     0          
C4       C      0.020500000000     0.464100000000     0.214200000000     0          
C3       C      0.031700000000     0.453150000000     0.214200000000     0          
C4       C      0.153300000000     0.376300000000     0.264600000000     0          
C3       C      0.142500000000     0.386300000000     0.264400000000     0          
C3       C      0.389800000000     0.333800000000     0.570900000000     0          
Zn1      Zn     0.140600000000     0.329650000000     0.777900000000     0          
Zn1      Zn     0.422000000000     0.352000000000     0.801700000000     0          
Zn1      Zn     0.387700000000     0.316850000000     0.739800000000     0          
O2       O      0.119400000000     0.433600000000     0.178600000000     0          
O2       O      0.089800000000     0.430550000000     0.148900000000     0          
O2       O      0.183100000000     0.380750000000     0.800700000000     0          
O2       O      0.144100000000     0.353000000000     0.810200000000     0          
O2       O      0.369850000000     0.323650000000     0.775700000000     0          
O2       O      0.394300000000     0.347650000000     0.818500000000     0          
O2       O      0.440700000000     0.380200000000     0.787900000000     0          
O2       O      0.378550000000     0.287750000000     0.753600000000     0          
C6       C      0.140000000000     0.445800000000     0.966500000000     0          
C7       C      0.144050000000     0.431600000000     0.946400000000     0          
C6       C      0.151000000000     0.433550000000     0.902000000000     0          
C7       C      0.154600000000     0.451200000000     0.879400000000     0          
C6       C      0.150600000000     0.465650000000     0.898200000000     0          
C7       C      0.142850000000     0.462500000000     0.941100000000     0          
C5       C      0.154100000000     0.417400000000     0.881500000000     0          
C4       C      0.143700000000     0.397750000000     0.893000000000     0          
C3       C      0.147600000000     0.383800000000     0.872000000000     0          
C2       C      0.159850000000     0.387750000000     0.839200000000     0          
C3       C      0.171100000000     0.407500000000     0.829700000000     0          
C4       C      0.167600000000     0.421750000000     0.850700000000     0          
C5       C      0.154600000000     0.484600000000     0.875800000000     0          
C4       C      0.167600000000     0.493750000000     0.843500000000     0          
C3       C      0.340850000000     0.329200000000     0.820100000000     0          
C2       C      0.358900000000     0.338750000000     0.829500000000     0          
C3       C      0.364350000000     0.350750000000     0.863500000000     0          
C4       C      0.146050000000     0.496000000000     0.886300000000     0          
C5       C      0.132950000000     0.442650000000     0.014200000000     0          
C4       C      0.117600000000     0.447400000000     0.025500000000     0          
C3       C      0.131900000000     0.432650000000     0.088800000000     0          
C2       C      0.116050000000     0.436100000000     0.099600000000     0          
C4       C      0.137700000000     0.434050000000     0.046900000000     0          
C1       C      0.108400000000     0.433200000000     0.146000000000     0          
C1       C      0.162350000000     0.370150000000     0.817400000000     0          
C1       C      0.373450000000     0.335750000000     0.807200000000     0          
C4       C      0.479500000000     0.443600000000     0.714200000000     0          
C3       C      0.468300000000     0.421450000000     0.714200000000     0          
C4       C      0.346700000000     0.223000000000     0.764600000000     0          
C3       C      0.357500000000     0.243800000000     0.764400000000     0          
C3       C      0.110200000000     0.444000000000     0.070900000000     0          
Zn1      Zn     0.430000000000     0.352000000000     0.698300000000     0          
Zn1      Zn     0.429150000000     0.316850000000     0.760200000000     0          
O2       O      0.066400000000     0.380600000000     0.321400000000     0          
O2       O      0.069450000000     0.410200000000     0.351100000000     0          
O2       O      0.126550000000     0.333850000000     0.727000000000     0          
O2       O      0.144200000000     0.336650000000     0.665300000000     0          
O2       O      0.453800000000     0.323650000000     0.724300000000     0          
O2       O      0.453350000000     0.347650000000     0.681500000000     0          
O2       O      0.439500000000     0.380200000000     0.712100000000     0          
O2       O      0.409200000000     0.287750000000     0.746400000000     0          
C6       C      0.054200000000     0.360000000000     0.533500000000     0          
C7       C      0.068400000000     0.355950000000     0.553600000000     0          
C6       C      0.066450000000     0.349000000000     0.598000000000     0          
C7       C      0.048800000000     0.345400000000     0.620600000000     0          
C6       C      0.034350000000     0.349400000000     0.601800000000     0          
C7       C      0.037500000000     0.357150000000     0.558900000000     0          
C5       C      0.082600000000     0.345900000000     0.618500000000     0          
C4       C      0.102250000000     0.356300000000     0.607000000000     0          
C3       C      0.116200000000     0.352400000000     0.628000000000     0          
C2       C      0.112250000000     0.340150000000     0.660800000000     0          
C3       C      0.092500000000     0.328900000000     0.670300000000     0          
C4       C      0.078250000000     0.332400000000     0.649300000000     0          
C5       C      0.015400000000     0.345400000000     0.624200000000     0          
C4       C      0.006250000000     0.332400000000     0.656500000000     0          
C3       C      0.488350000000     0.329200000000     0.679900000000     0          
C2       C      0.479850000000     0.338750000000     0.670500000000     0          
C3       C      0.486400000000     0.350750000000     0.636500000000     0          
C4       C      0.004000000000     0.353950000000     0.613700000000     0          
C5       C      0.057350000000     0.367050000000     0.485800000000     0          
C4       C      0.052600000000     0.382400000000     0.474500000000     0          
C3       C      0.067350000000     0.368100000000     0.411200000000     0          
C2       C      0.063900000000     0.383950000000     0.400400000000     0          
C4       C      0.065950000000     0.362300000000     0.453100000000     0          
C1       C      0.066800000000     0.391600000000     0.354000000000     0          
C1       C      0.129850000000     0.337650000000     0.682600000000     0          
C1       C      0.462300000000     0.335750000000     0.692800000000     0          
C4       C      0.464100000000     0.443600000000     0.785800000000     0          
C3       C      0.453150000000     0.421450000000     0.785800000000     0          
C4       C      0.376300000000     0.223000000000     0.735400000000     0          
C3       C      0.386300000000     0.243800000000     0.735600000000     0          
C3       C      0.056000000000     0.389800000000     0.429100000000     0          
O1       O      0.083225000000     0.416775000000     0.250000000000     0          
C6       C      0.010825000000     0.489175000000     0.250000000000     0          
C5       C      0.022675000000     0.477325000000     0.250000000000     0          
C2       C      0.044400000000     0.455600000000     0.250000000000     0          
C1       C      0.055225000000     0.444775000000     0.250000000000     0          
C6       C      0.155975000000     0.344025000000     0.250000000000     0          
C5       C      0.143900000000     0.356100000000     0.250000000000     0          
C2       C      0.122525000000     0.377475000000     0.250000000000     0          
C1       C      0.110775000000     0.389225000000     0.250000000000     0          
O1       O      0.416775000000     0.333550000000     0.750000000000     0          
C6       C      0.489175000000     0.478350000000     0.750000000000     0          
C5       C      0.477325000000     0.454650000000     0.750000000000     0          
C2       C      0.455600000000     0.411200000000     0.750000000000     0          
C1       C      0.444775000000     0.389550000000     0.750000000000     0          
C6       C      0.344025000000     0.188050000000     0.750000000000     0          
C5       C      0.356100000000     0.212200000000     0.750000000000     0          
C2       C      0.377475000000     0.254950000000     0.750000000000     0          
C1       C      0.389225000000     0.278450000000     0.750000000000     0          
C7       C      0.489300000000     0.478600000000     0.250000000000     0          
C7       C      0.010700000000     0.489300000000     0.750000000000     0          
H3       H      0.417390000000     0.275560000000     0.034300000000     0          
H3       H      0.454075000000     0.292995000000     0.155930000000     0          
H3       H      0.474270000000     0.335495000000     0.044660000000     0          
H2       H      0.392430000000     0.260960000000     0.079550000000     0          
H1       H      0.366905000000     0.227355000000     0.116380000000     0          
H1       H      0.412945000000     0.228975000000     0.196340000000     0          
H2       H      0.438540000000     0.260835000000     0.160900000000     0          
H2       H      0.487385000000     0.309485000000     0.168640000000     0          
H1       H      0.018155000000     0.335525000000     0.208170000000     0          
H1       H      0.022275000000     0.381220000000     0.124670000000     0          
H2       H      0.491550000000     0.356420000000     0.083880000000     0          
H2       H      0.453795000000     0.342600000000     0.000800000000     0          
H1       H      0.428590000000     0.288555000000     0.884080000000     0          
H2       H      0.426800000000     0.278950000000     0.959710000000     0          
H2       H      0.037830000000     0.490245000000     0.314800000000     0          
H1       H      0.057390000000     0.469915000000     0.314980000000     0          
H2       H      0.115650000000     0.329880000000     0.223290000000     0          
H1       H      0.096940000000     0.349955000000     0.223260000000     0          
H1       H      0.448680000000     0.350305000000     0.918240000000     0          
H3       H      0.358170000000     0.275560000000     0.465700000000     0          
H3       H      0.338920000000     0.292995000000     0.344070000000     0          
H3       H      0.361225000000     0.335495000000     0.455340000000     0          
H2       H      0.368530000000     0.260960000000     0.420450000000     0          
H1       H      0.360450000000     0.227355000000     0.383620000000     0          
H1       H      0.316030000000     0.228975000000     0.303660000000     0          
H2       H      0.322295000000     0.260835000000     0.339100000000     0          
H2       H      0.322100000000     0.309485000000     0.331360000000     0          
H1       H      0.164475000000     0.481845000000     0.291830000000     0          
H1       H      0.118780000000     0.477725000000     0.375330000000     0          
H2       H      0.364870000000     0.356420000000     0.416120000000     0          
H2       H      0.388805000000     0.342600000000     0.499200000000     0          
H1       H      0.359965000000     0.288555000000     0.615920000000     0          
H2       H      0.352150000000     0.278950000000     0.540290000000     0          
H2       H      0.009755000000     0.462170000000     0.185200000000     0          
H1       H      0.030085000000     0.442610000000     0.185020000000     0          
H2       H      0.170120000000     0.384350000000     0.276710000000     0          
H1       H      0.150045000000     0.403060000000     0.276740000000     0          
H1       H      0.401625000000     0.350305000000     0.581760000000     0          
H3       H      0.141830000000     0.417390000000     0.965700000000     0          
H3       H      0.161080000000     0.454075000000     0.844070000000     0          
H3       H      0.138775000000     0.474270000000     0.955340000000     0          
H2       H      0.131470000000     0.392430000000     0.920450000000     0          
H1       H      0.139550000000     0.366905000000     0.883620000000     0          
H1       H      0.183970000000     0.412945000000     0.803660000000     0          
H2       H      0.177705000000     0.438540000000     0.839100000000     0          
H2       H      0.177900000000     0.487385000000     0.831360000000     0          
H1       H      0.335525000000     0.317370000000     0.791830000000     0          
H1       H      0.381220000000     0.358945000000     0.875330000000     0          
H2       H      0.135130000000     0.491550000000     0.916120000000     0          
H2       H      0.111195000000     0.453795000000     0.999200000000     0          
H1       H      0.140035000000     0.428590000000     0.115920000000     0          
H2       H      0.147850000000     0.426800000000     0.040290000000     0          
H2       H      0.490245000000     0.452415000000     0.685200000000     0          
H1       H      0.469915000000     0.412525000000     0.685020000000     0          
H2       H      0.329880000000     0.214230000000     0.776710000000     0          
H1       H      0.349955000000     0.253015000000     0.776740000000     0          
H1       H      0.098375000000     0.448680000000     0.081760000000     0          
H3       H      0.082610000000     0.358170000000     0.534300000000     0          
H3       H      0.045925000000     0.338920000000     0.655930000000     0          
H3       H      0.025730000000     0.361225000000     0.544660000000     0          
H2       H      0.107570000000     0.368530000000     0.579550000000     0          
H1       H      0.133095000000     0.360450000000     0.616380000000     0          
H1       H      0.087055000000     0.316030000000     0.696340000000     0          
H2       H      0.061460000000     0.322295000000     0.660900000000     0          
H2       H      0.012615000000     0.322100000000     0.668640000000     0          
H1       H      0.481845000000     0.317370000000     0.708170000000     0          
H1       H      0.477725000000     0.358945000000     0.624670000000     0          
H2       H      0.008450000000     0.364870000000     0.583880000000     0          
H2       H      0.046205000000     0.388805000000     0.500800000000     0          
H1       H      0.071410000000     0.359965000000     0.384080000000     0          
H2       H      0.073200000000     0.352150000000     0.459710000000     0          
H2       H      0.462170000000     0.452415000000     0.814800000000     0          
H1       H      0.442610000000     0.412525000000     0.814980000000     0          
H2       H      0.384350000000     0.214230000000     0.723290000000     0          
H1       H      0.403060000000     0.253015000000     0.723260000000     0          
H1       H      0.051320000000     0.401625000000     0.418240000000     0          
H3       H      0.480265000000     0.460845000000     0.250000000000     0          
H3       H      0.019420000000     0.480265000000     0.750000000000     0          
H3       H      0.186175000000     0.372950000000     0.250000000000     0          
H3       H      0.372950000000     0.186775000000     0.750000000000     0          
Zn1      Zn     0.078000000000     0.648000000000     0.198300000000     0          
Zn1      Zn     0.112300000000     0.683150000000     0.260200000000     0          
O2       O      0.185800000000     0.619400000000     0.821400000000     0          
O2       O      0.159250000000     0.589800000000     0.851100000000     0          
O2       O      0.292700000000     0.666150000000     0.227000000000     0          
O2       O      0.307550000000     0.663350000000     0.165300000000     0          
O2       O      0.130150000000     0.676350000000     0.224300000000     0          
O2       O      0.105700000000     0.652350000000     0.181500000000     0          
O2       O      0.059300000000     0.619800000000     0.212100000000     0          
O2       O      0.121450000000     0.712250000000     0.246400000000     0          
C6       C      0.194200000000     0.640000000000     0.033500000000     0          
C7       C      0.212450000000     0.644050000000     0.053600000000     0          
C6       C      0.217450000000     0.651000000000     0.098000000000     0          
C7       C      0.203400000000     0.654600000000     0.120600000000     0          
C6       C      0.184950000000     0.650600000000     0.101800000000     0          
C7       C      0.180350000000     0.642850000000     0.058900000000     0          
C5       C      0.236700000000     0.654100000000     0.118500000000     0          
C4       C      0.245950000000     0.643700000000     0.107000000000     0          
C3       C      0.263800000000     0.647600000000     0.128000000000     0          
C2       C      0.272100000000     0.659850000000     0.160800000000     0          
C3       C      0.263600000000     0.671100000000     0.170300000000     0          
C4       C      0.245850000000     0.667600000000     0.149300000000     0          
C5       C      0.170000000000     0.654600000000     0.124200000000     0          
C4       C      0.173850000000     0.667600000000     0.156500000000     0          
C3       C      0.159150000000     0.670800000000     0.179900000000     0          
C2       C      0.141100000000     0.661250000000     0.170500000000     0          
C3       C      0.135650000000     0.649250000000     0.136500000000     0          
C4       C      0.150050000000     0.646050000000     0.113700000000     0          
C5       C      0.190300000000     0.632950000000     0.985800000000     0          
C4       C      0.170200000000     0.617600000000     0.974500000000     0          
C3       C      0.199250000000     0.631900000000     0.911200000000     0          
C2       C      0.179950000000     0.616050000000     0.900400000000     0          
C4       C      0.203650000000     0.637700000000     0.953100000000     0          
C1       C      0.175200000000     0.608400000000     0.854000000000     0          
C1       C      0.292200000000     0.662350000000     0.182600000000     0          
C1       C      0.126550000000     0.664250000000     0.192800000000     0          
C4       C      0.020500000000     0.556400000000     0.285800000000     0          
C3       C      0.031700000000     0.578550000000     0.285800000000     0          
C4       C      0.153300000000     0.777000000000     0.235400000000     0          
C3       C      0.142500000000     0.756200000000     0.235600000000     0          
C3       C      0.166200000000     0.610200000000     0.929100000000     0          
Zn1      Zn     0.310950000000     0.670350000000     0.277900000000     0          
Zn1      Zn     0.070000000000     0.648000000000     0.301700000000     0          
Zn1      Zn     0.070850000000     0.683150000000     0.239800000000     0          
O2       O      0.185800000000     0.566400000000     0.678600000000     0          
O2       O      0.159250000000     0.569450000000     0.648900000000     0          
O2       O      0.302350000000     0.619250000000     0.300700000000     0          
O2       O      0.291100000000     0.647000000000     0.310200000000     0          
O2       O      0.046200000000     0.676350000000     0.275700000000     0          
O2       O      0.046650000000     0.652350000000     0.318500000000     0          
O2       O      0.060500000000     0.619800000000     0.287900000000     0          
O2       O      0.090800000000     0.712250000000     0.253600000000     0          
C6       C      0.194200000000     0.554200000000     0.466500000000     0          
C7       C      0.212450000000     0.568400000000     0.446400000000     0          
C6       C      0.217450000000     0.566450000000     0.402000000000     0          
C7       C      0.203400000000     0.548800000000     0.379400000000     0          
C6       C      0.184950000000     0.534350000000     0.398200000000     0          
C7       C      0.180350000000     0.537500000000     0.441100000000     0          
C5       C      0.236700000000     0.582600000000     0.381500000000     0          
C4       C      0.245950000000     0.602250000000     0.393000000000     0          
C3       C      0.263800000000     0.616200000000     0.372000000000     0          
C2       C      0.272100000000     0.612250000000     0.339200000000     0          
C3       C      0.263600000000     0.592500000000     0.329700000000     0          
C4       C      0.245850000000     0.578250000000     0.350700000000     0          
C5       C      0.170000000000     0.515400000000     0.375800000000     0          
C4       C      0.173850000000     0.506250000000     0.343500000000     0          
C3       C      0.011650000000     0.670800000000     0.320100000000     0          
C2       C      0.020150000000     0.661250000000     0.329500000000     0          
C3       C      0.013600000000     0.649250000000     0.363500000000     0          
C4       C      0.150050000000     0.504000000000     0.386300000000     0          
C5       C      0.190300000000     0.557350000000     0.514200000000     0          
C4       C      0.170200000000     0.552600000000     0.525500000000     0          
C3       C      0.199250000000     0.567350000000     0.588800000000     0          
C2       C      0.179950000000     0.563900000000     0.599600000000     0          
C4       C      0.203650000000     0.565950000000     0.546900000000     0          
C1       C      0.175200000000     0.566800000000     0.646000000000     0          
C1       C      0.292200000000     0.629850000000     0.317400000000     0          
C1       C      0.037700000000     0.664250000000     0.307200000000     0          
C4       C      0.035900000000     0.556400000000     0.214200000000     0          
C3       C      0.046850000000     0.578550000000     0.214200000000     0          
C4       C      0.123700000000     0.777000000000     0.264600000000     0          
C3       C      0.113700000000     0.756200000000     0.264400000000     0          
C3       C      0.166200000000     0.556000000000     0.570900000000     0          
Zn1      Zn     0.170350000000     0.810950000000     0.777900000000     0          
Zn1      Zn     0.148000000000     0.570000000000     0.801700000000     0          
Zn1      Zn     0.183150000000     0.570850000000     0.739800000000     0          
O2       O      0.066400000000     0.685800000000     0.178600000000     0          
O2       O      0.069450000000     0.659250000000     0.148900000000     0          
O2       O      0.119250000000     0.802350000000     0.800700000000     0          
O2       O      0.147000000000     0.791100000000     0.810200000000     0          
O2       O      0.176350000000     0.546200000000     0.775700000000     0          
O2       O      0.152350000000     0.546650000000     0.818500000000     0          
O2       O      0.119800000000     0.560500000000     0.787900000000     0          
O2       O      0.212250000000     0.590800000000     0.753600000000     0          
C6       C      0.054200000000     0.694200000000     0.966500000000     0          
C7       C      0.068400000000     0.712450000000     0.946400000000     0          
C6       C      0.066450000000     0.717450000000     0.902000000000     0          
C7       C      0.048800000000     0.703400000000     0.879400000000     0          
C6       C      0.034350000000     0.684950000000     0.898200000000     0          
C7       C      0.037500000000     0.680350000000     0.941100000000     0          
C5       C      0.082600000000     0.736700000000     0.881500000000     0          
C4       C      0.102250000000     0.745950000000     0.893000000000     0          
C3       C      0.116200000000     0.763800000000     0.872000000000     0          
C2       C      0.112250000000     0.772100000000     0.839200000000     0          
C3       C      0.092500000000     0.763600000000     0.829700000000     0          
C4       C      0.078250000000     0.745850000000     0.850700000000     0          
C5       C      0.015400000000     0.670000000000     0.875800000000     0          
C4       C      0.006250000000     0.673850000000     0.843500000000     0          
C3       C      0.170800000000     0.511650000000     0.820100000000     0          
C2       C      0.161250000000     0.520150000000     0.829500000000     0          
C3       C      0.149250000000     0.513600000000     0.863500000000     0          
C4       C      0.004000000000     0.650050000000     0.886300000000     0          
C5       C      0.057350000000     0.690300000000     0.014200000000     0          
C4       C      0.052600000000     0.670200000000     0.025500000000     0          
C3       C      0.067350000000     0.699250000000     0.088800000000     0          
C2       C      0.063900000000     0.679950000000     0.099600000000     0          
C4       C      0.065950000000     0.703650000000     0.046900000000     0          
C1       C      0.066800000000     0.675200000000     0.146000000000     0          
C1       C      0.129850000000     0.792200000000     0.817400000000     0          
C1       C      0.164250000000     0.537700000000     0.807200000000     0          
C4       C      0.056400000000     0.535900000000     0.714200000000     0          
C3       C      0.078550000000     0.546850000000     0.714200000000     0          
C4       C      0.277000000000     0.623700000000     0.764600000000     0          
C3       C      0.256200000000     0.613700000000     0.764400000000     0          
C3       C      0.056000000000     0.666200000000     0.070900000000     0          
Zn1      Zn     0.148000000000     0.578000000000     0.698300000000     0          
Zn1      Zn     0.183150000000     0.612300000000     0.760200000000     0          
O2       O      0.119400000000     0.685800000000     0.321400000000     0          
O2       O      0.089800000000     0.659250000000     0.351100000000     0          
O2       O      0.166150000000     0.792700000000     0.727000000000     0          
O2       O      0.163350000000     0.807550000000     0.665300000000     0          
O2       O      0.176350000000     0.630150000000     0.724300000000     0          
O2       O      0.152350000000     0.605700000000     0.681500000000     0          
O2       O      0.119800000000     0.559300000000     0.712100000000     0          
O2       O      0.212250000000     0.621450000000     0.746400000000     0          
C6       C      0.140000000000     0.694200000000     0.533500000000     0          
C7       C      0.144050000000     0.712450000000     0.553600000000     0          
C6       C      0.151000000000     0.717450000000     0.598000000000     0          
C7       C      0.154600000000     0.703400000000     0.620600000000     0          
C6       C      0.150600000000     0.684950000000     0.601800000000     0          
C7       C      0.142850000000     0.680350000000     0.558900000000     0          
C5       C      0.154100000000     0.736700000000     0.618500000000     0          
C4       C      0.143700000000     0.745950000000     0.607000000000     0          
C3       C      0.147600000000     0.763800000000     0.628000000000     0          
C2       C      0.159850000000     0.772100000000     0.660800000000     0          
C3       C      0.171100000000     0.763600000000     0.670300000000     0          
C4       C      0.167600000000     0.745850000000     0.649300000000     0          
C5       C      0.154600000000     0.670000000000     0.624200000000     0          
C4       C      0.167600000000     0.673850000000     0.656500000000     0          
C3       C      0.170800000000     0.659150000000     0.679900000000     0          
C2       C      0.161250000000     0.641100000000     0.670500000000     0          
C3       C      0.149250000000     0.635650000000     0.636500000000     0          
C4       C      0.146050000000     0.650050000000     0.613700000000     0          
C5       C      0.132950000000     0.690300000000     0.485800000000     0          
C4       C      0.117600000000     0.670200000000     0.474500000000     0          
C3       C      0.131900000000     0.699250000000     0.411200000000     0          
C2       C      0.116050000000     0.679950000000     0.400400000000     0          
C4       C      0.137700000000     0.703650000000     0.453100000000     0          
C1       C      0.108400000000     0.675200000000     0.354000000000     0          
C1       C      0.162350000000     0.792200000000     0.682600000000     0          
C1       C      0.164250000000     0.626550000000     0.692800000000     0          
C4       C      0.056400000000     0.520500000000     0.785800000000     0          
C3       C      0.078550000000     0.531700000000     0.785800000000     0          
C4       C      0.277000000000     0.653300000000     0.735400000000     0          
C3       C      0.256200000000     0.642500000000     0.735600000000     0          
C3       C      0.110200000000     0.666200000000     0.429100000000     0          
Zn1      Zn     0.333330000000     0.666665000000     0.190400000000     0          
Zn1      Zn     0.166665000000     0.833330000000     0.690400000000     0          
O1       O      0.083225000000     0.666450000000     0.250000000000     0          
C6       C      0.010825000000     0.521650000000     0.250000000000     0          
C5       C      0.022675000000     0.545350000000     0.250000000000     0          
C2       C      0.044400000000     0.588800000000     0.250000000000     0          
C1       C      0.055225000000     0.610450000000     0.250000000000     0          
C6       C      0.155975000000     0.811950000000     0.250000000000     0          
C5       C      0.143900000000     0.787800000000     0.250000000000     0          
C2       C      0.122525000000     0.745050000000     0.250000000000     0          
C1       C      0.110775000000     0.721550000000     0.250000000000     0          
O1       O      0.166450000000     0.583225000000     0.750000000000     0          
C6       C      0.021650000000     0.510825000000     0.750000000000     0          
C5       C      0.045350000000     0.522675000000     0.750000000000     0          
C2       C      0.088800000000     0.544400000000     0.750000000000     0          
C1       C      0.110450000000     0.555225000000     0.750000000000     0          
C6       C      0.311950000000     0.655975000000     0.750000000000     0          
C5       C      0.287800000000     0.643900000000     0.750000000000     0          
C2       C      0.245050000000     0.622525000000     0.750000000000     0          
C1       C      0.221550000000     0.610775000000     0.750000000000     0          
O1       O      0.333330000000     0.666665000000     0.250000000000     0          
O1       O      0.166665000000     0.833330000000     0.750000000000     0          
C7       C      0.021400000000     0.510700000000     0.250000000000     0          
C7       C      0.010700000000     0.521400000000     0.750000000000     0          
C7       C      0.144800000000     0.822400000000     0.250000000000     0          
C7       C      0.177600000000     0.822400000000     0.250000000000     0          
C7       C      0.322400000000     0.644800000000     0.750000000000     0          
C7       C      0.322400000000     0.677600000000     0.750000000000     0          
H3       H      0.224440000000     0.641830000000     0.034300000000     0          
H3       H      0.207005000000     0.661080000000     0.155930000000     0          
H3       H      0.164505000000     0.638775000000     0.044660000000     0          
H2       H      0.239040000000     0.631470000000     0.079550000000     0          
H1       H      0.272645000000     0.639550000000     0.116380000000     0          
H1       H      0.271025000000     0.683970000000     0.196340000000     0          
H2       H      0.239165000000     0.677705000000     0.160900000000     0          
H2       H      0.190515000000     0.677900000000     0.168640000000     0          
H1       H      0.164475000000     0.682630000000     0.208170000000     0          
H1       H      0.118780000000     0.641055000000     0.124670000000     0          
H2       H      0.143580000000     0.635130000000     0.083880000000     0          
H2       H      0.157400000000     0.611195000000     0.000800000000     0          
H1       H      0.211445000000     0.640035000000     0.884080000000     0          
H2       H      0.221050000000     0.647850000000     0.959710000000     0          
H2       H      0.009755000000     0.547585000000     0.314800000000     0          
H1       H      0.030085000000     0.587475000000     0.314980000000     0          
H2       H      0.170120000000     0.785770000000     0.223290000000     0          
H1       H      0.150045000000     0.746985000000     0.223260000000     0          
H1       H      0.149695000000     0.598375000000     0.918240000000     0          
H3       H      0.224440000000     0.582610000000     0.465700000000     0          
H3       H      0.207005000000     0.545925000000     0.344070000000     0          
H3       H      0.164505000000     0.525730000000     0.455340000000     0          
H2       H      0.239040000000     0.607570000000     0.420450000000     0          
H1       H      0.272645000000     0.633095000000     0.383620000000     0          
H1       H      0.271025000000     0.587055000000     0.303660000000     0          
H2       H      0.239165000000     0.561460000000     0.339100000000     0          
H2       H      0.190515000000     0.512615000000     0.331360000000     0          
H1       H      0.018155000000     0.682630000000     0.291830000000     0          
H1       H      0.022275000000     0.641055000000     0.375330000000     0          
H2       H      0.143580000000     0.508450000000     0.416120000000     0          
H2       H      0.157400000000     0.546205000000     0.499200000000     0          
H1       H      0.211445000000     0.571410000000     0.615920000000     0          
H2       H      0.221050000000     0.573200000000     0.540290000000     0          
H2       H      0.037830000000     0.547585000000     0.185200000000     0          
H1       H      0.057390000000     0.587475000000     0.185020000000     0          
H2       H      0.115650000000     0.785770000000     0.276710000000     0          
H1       H      0.096940000000     0.746985000000     0.276740000000     0          
H1       H      0.149695000000     0.551320000000     0.581760000000     0          
H3       H      0.082610000000     0.724440000000     0.965700000000     0          
H3       H      0.045925000000     0.707005000000     0.844070000000     0          
H3       H      0.025730000000     0.664505000000     0.955340000000     0          
H2       H      0.107570000000     0.739040000000     0.920450000000     0          
H1       H      0.133095000000     0.772645000000     0.883620000000     0          
H1       H      0.087055000000     0.771025000000     0.803660000000     0          
H2       H      0.061460000000     0.739165000000     0.839100000000     0          
H2       H      0.012615000000     0.690515000000     0.831360000000     0          
H1       H      0.182630000000     0.518155000000     0.791830000000     0          
H1       H      0.141055000000     0.522275000000     0.875330000000     0          
H2       H      0.008450000000     0.643580000000     0.916120000000     0          
H2       H      0.046205000000     0.657400000000     0.999200000000     0          
H1       H      0.071410000000     0.711445000000     0.115920000000     0          
H2       H      0.073200000000     0.721050000000     0.040290000000     0          
H2       H      0.047585000000     0.537830000000     0.685200000000     0          
H1       H      0.087475000000     0.557390000000     0.685020000000     0          
H2       H      0.285770000000     0.615650000000     0.776710000000     0          
H1       H      0.246985000000     0.596940000000     0.776740000000     0          
H1       H      0.051320000000     0.649695000000     0.081760000000     0          
H3       H      0.141830000000     0.724440000000     0.534300000000     0          
H3       H      0.161080000000     0.707005000000     0.655930000000     0          
H3       H      0.138775000000     0.664505000000     0.544660000000     0          
H2       H      0.131470000000     0.739040000000     0.579550000000     0          
H1       H      0.139550000000     0.772645000000     0.616380000000     0          
H1       H      0.183970000000     0.771025000000     0.696340000000     0          
H2       H      0.177705000000     0.739165000000     0.660900000000     0          
H2       H      0.177900000000     0.690515000000     0.668640000000     0          
H1       H      0.182630000000     0.664475000000     0.708170000000     0          
H1       H      0.141055000000     0.618780000000     0.624670000000     0          
H2       H      0.135130000000     0.643580000000     0.583880000000     0          
H2       H      0.111195000000     0.657400000000     0.500800000000     0          
H1       H      0.140035000000     0.711445000000     0.384080000000     0          
H2       H      0.147850000000     0.721050000000     0.459710000000     0          
H2       H      0.047585000000     0.509755000000     0.814800000000     0          
H1       H      0.087475000000     0.530085000000     0.814980000000     0          
H2       H      0.285770000000     0.670120000000     0.723290000000     0          
H1       H      0.246985000000     0.650045000000     0.723260000000     0          
H1       H      0.098375000000     0.649695000000     0.418240000000     0          
H3       H      0.039155000000     0.519420000000     0.250000000000     0          
H3       H      0.019735000000     0.539155000000     0.750000000000     0          
H3       H      0.127050000000     0.813225000000     0.250000000000     0          
H3       H      0.313225000000     0.686175000000     0.750000000000     0          
Zn1      Zn     0.352000000000     0.930000000000     0.198300000000     0          
Zn1      Zn     0.316850000000     0.929150000000     0.260200000000     0          
O2       O      0.380600000000     0.566400000000     0.821400000000     0          
O2       O      0.410200000000     0.569450000000     0.851100000000     0          
O2       O      0.333850000000     0.626550000000     0.227000000000     0          
O2       O      0.336650000000     0.644200000000     0.165300000000     0          
O2       O      0.323650000000     0.953800000000     0.224300000000     0          
O2       O      0.347650000000     0.953350000000     0.181500000000     0          
O2       O      0.380200000000     0.939500000000     0.212100000000     0          
O2       O      0.287750000000     0.909200000000     0.246400000000     0          
C6       C      0.360000000000     0.554200000000     0.033500000000     0          
C7       C      0.355950000000     0.568400000000     0.053600000000     0          
C6       C      0.349000000000     0.566450000000     0.098000000000     0          
C7       C      0.345400000000     0.548800000000     0.120600000000     0          
C6       C      0.349400000000     0.534350000000     0.101800000000     0          
C7       C      0.357150000000     0.537500000000     0.058900000000     0          
C5       C      0.345900000000     0.582600000000     0.118500000000     0          
C4       C      0.356300000000     0.602250000000     0.107000000000     0          
C3       C      0.352400000000     0.616200000000     0.128000000000     0          
C2       C      0.340150000000     0.612250000000     0.160800000000     0          
C3       C      0.328900000000     0.592500000000     0.170300000000     0          
C4       C      0.332400000000     0.578250000000     0.149300000000     0          
C5       C      0.345400000000     0.515400000000     0.124200000000     0          
C4       C      0.332400000000     0.506250000000     0.156500000000     0          
C3       C      0.329200000000     0.988350000000     0.179900000000     0          
C2       C      0.338750000000     0.979850000000     0.170500000000     0          
C3       C      0.350750000000     0.986400000000     0.136500000000     0          
C4       C      0.353950000000     0.504000000000     0.113700000000     0          
C5       C      0.367050000000     0.557350000000     0.985800000000     0          
C4       C      0.382400000000     0.552600000000     0.974500000000     0          
C3       C      0.368100000000     0.567350000000     0.911200000000     0          
C2       C      0.383950000000     0.563900000000     0.900400000000     0          
C4       C      0.362300000000     0.565950000000     0.953100000000     0          
C1       C      0.391600000000     0.566800000000     0.854000000000     0          
C1       C      0.337650000000     0.629850000000     0.182600000000     0          
C1       C      0.335750000000     0.962300000000     0.192800000000     0          
C4       C      0.443600000000     0.964100000000     0.285800000000     0          
C3       C      0.421450000000     0.953150000000     0.285800000000     0          
C4       C      0.223000000000     0.876300000000     0.235400000000     0          
C3       C      0.243800000000     0.886300000000     0.235600000000     0          
C3       C      0.389800000000     0.556000000000     0.929100000000     0          
Zn1      Zn     0.329650000000     0.640600000000     0.277900000000     0          
Zn1      Zn     0.352000000000     0.922000000000     0.301700000000     0          
Zn1      Zn     0.316850000000     0.887700000000     0.239800000000     0          
O2       O      0.433600000000     0.619400000000     0.678600000000     0          
O2       O      0.430550000000     0.589800000000     0.648900000000     0          
O2       O      0.380750000000     0.683100000000     0.300700000000     0          
O2       O      0.353000000000     0.644100000000     0.310200000000     0          
O2       O      0.323650000000     0.869850000000     0.275700000000     0          
O2       O      0.347650000000     0.894300000000     0.318500000000     0          
O2       O      0.380200000000     0.940700000000     0.287900000000     0          
O2       O      0.287750000000     0.878550000000     0.253600000000     0          
C6       C      0.445800000000     0.640000000000     0.466500000000     0          
C7       C      0.431600000000     0.644050000000     0.446400000000     0          
C6       C      0.433550000000     0.651000000000     0.402000000000     0          
C7       C      0.451200000000     0.654600000000     0.379400000000     0          
C6       C      0.465650000000     0.650600000000     0.398200000000     0          
C7       C      0.462500000000     0.642850000000     0.441100000000     0          
C5       C      0.417400000000     0.654100000000     0.381500000000     0          
C4       C      0.397750000000     0.643700000000     0.393000000000     0          
C3       C      0.383800000000     0.647600000000     0.372000000000     0          
C2       C      0.387750000000     0.659850000000     0.339200000000     0          
C3       C      0.407500000000     0.671100000000     0.329700000000     0          
C4       C      0.421750000000     0.667600000000     0.350700000000     0          
C5       C      0.484600000000     0.654600000000     0.375800000000     0          
C4       C      0.493750000000     0.667600000000     0.343500000000     0          
C3       C      0.329200000000     0.840850000000     0.320100000000     0          
C2       C      0.338750000000     0.858900000000     0.329500000000     0          
C3       C      0.350750000000     0.864350000000     0.363500000000     0          
C4       C      0.496000000000     0.646050000000     0.386300000000     0          
C5       C      0.442650000000     0.632950000000     0.514200000000     0          
C4       C      0.447400000000     0.617600000000     0.525500000000     0          
C3       C      0.432650000000     0.631900000000     0.588800000000     0          
C2       C      0.436100000000     0.616050000000     0.599600000000     0          
C4       C      0.434050000000     0.637700000000     0.546900000000     0          
C1       C      0.433200000000     0.608400000000     0.646000000000     0          
C1       C      0.370150000000     0.662350000000     0.317400000000     0          
C1       C      0.335750000000     0.873450000000     0.307200000000     0          
C4       C      0.443600000000     0.979500000000     0.214200000000     0          
C3       C      0.421450000000     0.968300000000     0.214200000000     0          
C4       C      0.223000000000     0.846700000000     0.264600000000     0          
C3       C      0.243800000000     0.857500000000     0.264400000000     0          
C3       C      0.444000000000     0.610200000000     0.570900000000     0          
Zn1      Zn     0.189050000000     0.859400000000     0.777900000000     0          
Zn1      Zn     0.430000000000     0.578000000000     0.801700000000     0          
Zn1      Zn     0.429150000000     0.612300000000     0.739800000000     0          
O2       O      0.314200000000     0.880600000000     0.178600000000     0          
O2       O      0.340750000000     0.910200000000     0.148900000000     0          
O2       O      0.197650000000     0.816900000000     0.800700000000     0          
O2       O      0.208900000000     0.855900000000     0.810200000000     0          
O2       O      0.453800000000     0.630150000000     0.775700000000     0          
O2       O      0.453350000000     0.605700000000     0.818500000000     0          
O2       O      0.439500000000     0.559300000000     0.787900000000     0          
O2       O      0.409200000000     0.621450000000     0.753600000000     0          
C6       C      0.305800000000     0.860000000000     0.966500000000     0          
C7       C      0.287550000000     0.855950000000     0.946400000000     0          
C6       C      0.282550000000     0.849000000000     0.902000000000     0          
C7       C      0.296600000000     0.845400000000     0.879400000000     0          
C6       C      0.315050000000     0.849400000000     0.898200000000     0          
C7       C      0.319650000000     0.857150000000     0.941100000000     0          
C5       C      0.263300000000     0.845900000000     0.881500000000     0          
C4       C      0.254050000000     0.856300000000     0.893000000000     0          
C3       C      0.236200000000     0.852400000000     0.872000000000     0          
C2       C      0.227900000000     0.840150000000     0.839200000000     0          
C3       C      0.236400000000     0.828900000000     0.829700000000     0          
C4       C      0.254150000000     0.832400000000     0.850700000000     0          
C5       C      0.330000000000     0.845400000000     0.875800000000     0          
C4       C      0.326150000000     0.832400000000     0.843500000000     0          
C3       C      0.488350000000     0.659150000000     0.820100000000     0          
C2       C      0.479850000000     0.641100000000     0.829500000000     0          
C3       C      0.486400000000     0.635650000000     0.863500000000     0          
C4       C      0.349950000000     0.853950000000     0.886300000000     0          
C5       C      0.309700000000     0.867050000000     0.014200000000     0          
C4       C      0.329800000000     0.882400000000     0.025500000000     0          
C3       C      0.300750000000     0.868100000000     0.088800000000     0          
C2       C      0.320050000000     0.883950000000     0.099600000000     0          
C4       C      0.296350000000     0.862300000000     0.046900000000     0          
C1       C      0.324800000000     0.891600000000     0.146000000000     0          
C1       C      0.207800000000     0.837650000000     0.817400000000     0          
C1       C      0.462300000000     0.626550000000     0.807200000000     0          
C4       C      0.464100000000     0.520500000000     0.714200000000     0          
C3       C      0.453150000000     0.531700000000     0.714200000000     0          
C4       C      0.376300000000     0.653300000000     0.764600000000     0          
C3       C      0.386300000000     0.642500000000     0.764400000000     0          
C3       C      0.333800000000     0.889800000000     0.070900000000     0          
Zn1      Zn     0.422000000000     0.570000000000     0.698300000000     0          
Zn1      Zn     0.387700000000     0.570850000000     0.760200000000     0          
O2       O      0.314200000000     0.933600000000     0.321400000000     0          
O2       O      0.340750000000     0.930550000000     0.351100000000     0          
O2       O      0.207300000000     0.873450000000     0.727000000000     0          
O2       O      0.192450000000     0.855800000000     0.665300000000     0          
O2       O      0.369850000000     0.546200000000     0.724300000000     0          
O2       O      0.394300000000     0.546650000000     0.681500000000     0          
O2       O      0.440700000000     0.560500000000     0.712100000000     0          
O2       O      0.378550000000     0.590800000000     0.746400000000     0          
C6       C      0.305800000000     0.945800000000     0.533500000000     0          
C7       C      0.287550000000     0.931600000000     0.553600000000     0          
C6       C      0.282550000000     0.933550000000     0.598000000000     0          
C7       C      0.296600000000     0.951200000000     0.620600000000     0          
C6       C      0.315050000000     0.965650000000     0.601800000000     0          
C7       C      0.319650000000     0.962500000000     0.558900000000     0          
C5       C      0.263300000000     0.917400000000     0.618500000000     0          
C4       C      0.254050000000     0.897750000000     0.607000000000     0          
C3       C      0.236200000000     0.883800000000     0.628000000000     0          
C2       C      0.227900000000     0.887750000000     0.660800000000     0          
C3       C      0.236400000000     0.907500000000     0.670300000000     0          
C4       C      0.254150000000     0.921750000000     0.649300000000     0          
C5       C      0.330000000000     0.984600000000     0.624200000000     0          
C4       C      0.326150000000     0.993750000000     0.656500000000     0          
C3       C      0.340850000000     0.511650000000     0.679900000000     0          
C2       C      0.358900000000     0.520150000000     0.670500000000     0          
C3       C      0.364350000000     0.513600000000     0.636500000000     0          
C4       C      0.349950000000     0.996000000000     0.613700000000     0          
C5       C      0.309700000000     0.942650000000     0.485800000000     0          
C4       C      0.329800000000     0.947400000000     0.474500000000     0          
C3       C      0.300750000000     0.932650000000     0.411200000000     0          
C2       C      0.320050000000     0.936100000000     0.400400000000     0          
C4       C      0.296350000000     0.934050000000     0.453100000000     0          
C1       C      0.324800000000     0.933200000000     0.354000000000     0          
C1       C      0.207800000000     0.870150000000     0.682600000000     0          
C1       C      0.373450000000     0.537700000000     0.692800000000     0          
C4       C      0.479500000000     0.535900000000     0.785800000000     0          
C3       C      0.468300000000     0.546850000000     0.785800000000     0          
C4       C      0.346700000000     0.623700000000     0.735400000000     0          
C3       C      0.357500000000     0.613700000000     0.735600000000     0          
C3       C      0.333800000000     0.944000000000     0.429100000000     0          
O1       O      0.333550000000     0.916775000000     0.250000000000     0          
C6       C      0.478350000000     0.989175000000     0.250000000000     0          
C5       C      0.454650000000     0.977325000000     0.250000000000     0          
C2       C      0.411200000000     0.955600000000     0.250000000000     0          
C1       C      0.389550000000     0.944775000000     0.250000000000     0          
C6       C      0.188050000000     0.844025000000     0.250000000000     0          
C5       C      0.212200000000     0.856100000000     0.250000000000     0          
C2       C      0.254950000000     0.877475000000     0.250000000000     0          
C1       C      0.278450000000     0.889225000000     0.250000000000     0          
O1       O      0.416775000000     0.583225000000     0.750000000000     0          
C6       C      0.489175000000     0.510825000000     0.750000000000     0          
C5       C      0.477325000000     0.522675000000     0.750000000000     0          
C2       C      0.455600000000     0.544400000000     0.750000000000     0          
C1       C      0.444775000000     0.555225000000     0.750000000000     0          
C6       C      0.344025000000     0.655975000000     0.750000000000     0          
C5       C      0.356100000000     0.643900000000     0.750000000000     0          
C2       C      0.377475000000     0.622525000000     0.750000000000     0          
C1       C      0.389225000000     0.610775000000     0.750000000000     0          
C7       C      0.489300000000     0.510700000000     0.250000000000     0          
C7       C      0.478600000000     0.989300000000     0.750000000000     0          
C7       C      0.177600000000     0.855200000000     0.250000000000     0          
C7       C      0.355200000000     0.677600000000     0.750000000000     0          
H3       H      0.358170000000     0.582610000000     0.034300000000     0          
H3       H      0.338920000000     0.545925000000     0.155930000000     0          
H3       H      0.361225000000     0.525730000000     0.044660000000     0          
H2       H      0.368530000000     0.607570000000     0.079550000000     0          
H1       H      0.360450000000     0.633095000000     0.116380000000     0          
H1       H      0.316030000000     0.587055000000     0.196340000000     0          
H2       H      0.322295000000     0.561460000000     0.160900000000     0          
H2       H      0.322100000000     0.512615000000     0.168640000000     0          
H1       H      0.317370000000     0.981845000000     0.208170000000     0          
H1       H      0.358945000000     0.977725000000     0.124670000000     0          
H2       H      0.364870000000     0.508450000000     0.083880000000     0          
H2       H      0.388805000000     0.546205000000     0.000800000000     0          
H1       H      0.359965000000     0.571410000000     0.884080000000     0          
H2       H      0.352150000000     0.573200000000     0.959710000000     0          
H2       H      0.452415000000     0.962170000000     0.314800000000     0          
H1       H      0.412525000000     0.942610000000     0.314980000000     0          
H2       H      0.214230000000     0.884350000000     0.223290000000     0          
H1       H      0.253015000000     0.903060000000     0.223260000000     0          
H1       H      0.401625000000     0.551320000000     0.918240000000     0          
H3       H      0.417390000000     0.641830000000     0.465700000000     0          
H3       H      0.454075000000     0.661080000000     0.344070000000     0          
H3       H      0.474270000000     0.638775000000     0.455340000000     0          
H2       H      0.392430000000     0.631470000000     0.420450000000     0          
H1       H      0.366905000000     0.639550000000     0.383620000000     0          
H1       H      0.412945000000     0.683970000000     0.303660000000     0          
H2       H      0.438540000000     0.677705000000     0.339100000000     0          
H2       H      0.487385000000     0.677900000000     0.331360000000     0          
H1       H      0.317370000000     0.835525000000     0.291830000000     0          
H1       H      0.358945000000     0.881220000000     0.375330000000     0          
H2       H      0.491550000000     0.635130000000     0.416120000000     0          
H2       H      0.453795000000     0.611195000000     0.499200000000     0          
H1       H      0.428590000000     0.640035000000     0.615920000000     0          
H2       H      0.426800000000     0.647850000000     0.540290000000     0          
H2       H      0.452415000000     0.990245000000     0.185200000000     0          
H1       H      0.412525000000     0.969915000000     0.185020000000     0          
H2       H      0.214230000000     0.829880000000     0.276710000000     0          
H1       H      0.253015000000     0.849955000000     0.276740000000     0          
H1       H      0.448680000000     0.598375000000     0.581760000000     0          
H3       H      0.275560000000     0.858170000000     0.965700000000     0          
H3       H      0.292995000000     0.838920000000     0.844070000000     0          
H3       H      0.335495000000     0.861225000000     0.955340000000     0          
H2       H      0.260960000000     0.868530000000     0.920450000000     0          
H1       H      0.227355000000     0.860450000000     0.883620000000     0          
H1       H      0.228975000000     0.816030000000     0.803660000000     0          
H2       H      0.260835000000     0.822295000000     0.839100000000     0          
H2       H      0.309485000000     0.822100000000     0.831360000000     0          
H1       H      0.481845000000     0.664475000000     0.791830000000     0          
H1       H      0.477725000000     0.618780000000     0.875330000000     0          
H2       H      0.356420000000     0.864870000000     0.916120000000     0          
H2       H      0.342600000000     0.888805000000     0.999200000000     0          
H1       H      0.288555000000     0.859965000000     0.115920000000     0          
H2       H      0.278950000000     0.852150000000     0.040290000000     0          
H2       H      0.462170000000     0.509755000000     0.685200000000     0          
H1       H      0.442610000000     0.530085000000     0.685020000000     0          
H2       H      0.384350000000     0.670120000000     0.776710000000     0          
H1       H      0.403060000000     0.650045000000     0.776740000000     0          
H1       H      0.350305000000     0.901625000000     0.081760000000     0          
H3       H      0.275560000000     0.917390000000     0.534300000000     0          
H3       H      0.292995000000     0.954075000000     0.655930000000     0          
H3       H      0.335495000000     0.974270000000     0.544660000000     0          
H2       H      0.260960000000     0.892430000000     0.579550000000     0          
H1       H      0.227355000000     0.866905000000     0.616380000000     0          
H1       H      0.228975000000     0.912945000000     0.696340000000     0          
H2       H      0.260835000000     0.938540000000     0.660900000000     0          
H2       H      0.309485000000     0.987385000000     0.668640000000     0          
H1       H      0.335525000000     0.518155000000     0.708170000000     0          
H1       H      0.381220000000     0.522275000000     0.624670000000     0          
H2       H      0.356420000000     0.991550000000     0.583880000000     0          
H2       H      0.342600000000     0.953795000000     0.500800000000     0          
H1       H      0.288555000000     0.928590000000     0.384080000000     0          
H2       H      0.278950000000     0.926800000000     0.459710000000     0          
H2       H      0.490245000000     0.537830000000     0.814800000000     0          
H1       H      0.469915000000     0.557390000000     0.814980000000     0          
H2       H      0.329880000000     0.615650000000     0.723290000000     0          
H1       H      0.349955000000     0.596940000000     0.723260000000     0          
H1       H      0.350305000000     0.948680000000     0.418240000000     0          
H3       H      0.480580000000     0.519735000000     0.250000000000     0          
H3       H      0.460845000000     0.980580000000     0.750000000000     0          
H3       H      0.186775000000     0.813825000000     0.250000000000     0          
H3       H      0.313825000000     0.627050000000     0.750000000000     0          
Zn1      Zn     0.070000000000     0.922000000000     0.198300000000     0          
Zn1      Zn     0.070850000000     0.887700000000     0.260200000000     0          
O2       O      0.433600000000     0.814200000000     0.821400000000     0          
O2       O      0.430550000000     0.840750000000     0.851100000000     0          
O2       O      0.373450000000     0.707300000000     0.227000000000     0          
O2       O      0.355800000000     0.692450000000     0.165300000000     0          
O2       O      0.046200000000     0.869850000000     0.224300000000     0          
O2       O      0.046650000000     0.894300000000     0.181500000000     0          
O2       O      0.060500000000     0.940700000000     0.212100000000     0          
O2       O      0.090800000000     0.878550000000     0.246400000000     0          
C6       C      0.445800000000     0.805800000000     0.033500000000     0          
C7       C      0.431600000000     0.787550000000     0.053600000000     0          
C6       C      0.433550000000     0.782550000000     0.098000000000     0          
C7       C      0.451200000000     0.796600000000     0.120600000000     0          
C6       C      0.465650000000     0.815050000000     0.101800000000     0          
C7       C      0.462500000000     0.819650000000     0.058900000000     0          
C5       C      0.417400000000     0.763300000000     0.118500000000     0          
C4       C      0.397750000000     0.754050000000     0.107000000000     0          
C3       C      0.383800000000     0.736200000000     0.128000000000     0          
C2       C      0.387750000000     0.727900000000     0.160800000000     0          
C3       C      0.407500000000     0.736400000000     0.170300000000     0          
C4       C      0.421750000000     0.754150000000     0.149300000000     0          
C5       C      0.484600000000     0.830000000000     0.124200000000     0          
C4       C      0.493750000000     0.826150000000     0.156500000000     0          
C3       C      0.011650000000     0.840850000000     0.179900000000     0          
C2       C      0.020150000000     0.858900000000     0.170500000000     0          
C3       C      0.013600000000     0.864350000000     0.136500000000     0          
C4       C      0.496000000000     0.849950000000     0.113700000000     0          
C5       C      0.442650000000     0.809700000000     0.985800000000     0          
C4       C      0.447400000000     0.829800000000     0.974500000000     0          
C3       C      0.432650000000     0.800750000000     0.911200000000     0          
C2       C      0.436100000000     0.820050000000     0.900400000000     0          
C4       C      0.434050000000     0.796350000000     0.953100000000     0          
C1       C      0.433200000000     0.824800000000     0.854000000000     0          
C1       C      0.370150000000     0.707800000000     0.182600000000     0          
C1       C      0.037700000000     0.873450000000     0.192800000000     0          
C4       C      0.035900000000     0.979500000000     0.285800000000     0          
C3       C      0.046850000000     0.968300000000     0.285800000000     0          
C4       C      0.123700000000     0.846700000000     0.235400000000     0          
C3       C      0.113700000000     0.857500000000     0.235600000000     0          
C3       C      0.444000000000     0.833800000000     0.929100000000     0          
Zn1      Zn     0.359400000000     0.689050000000     0.277900000000     0          
Zn1      Zn     0.078000000000     0.930000000000     0.301700000000     0          
Zn1      Zn     0.112300000000     0.929150000000     0.239800000000     0          
O2       O      0.380600000000     0.814200000000     0.678600000000     0          
O2       O      0.410200000000     0.840750000000     0.648900000000     0          
O2       O      0.316900000000     0.697650000000     0.300700000000     0          
O2       O      0.355900000000     0.708900000000     0.310200000000     0          
O2       O      0.130150000000     0.953800000000     0.275700000000     0          
O2       O      0.105700000000     0.953350000000     0.318500000000     0          
O2       O      0.059300000000     0.939500000000     0.287900000000     0          
O2       O      0.121450000000     0.909200000000     0.253600000000     0          
C6       C      0.360000000000     0.805800000000     0.466500000000     0          
C7       C      0.355950000000     0.787550000000     0.446400000000     0          
C6       C      0.349000000000     0.782550000000     0.402000000000     0          
C7       C      0.345400000000     0.796600000000     0.379400000000     0          
C6       C      0.349400000000     0.815050000000     0.398200000000     0          
C7       C      0.357150000000     0.819650000000     0.441100000000     0          
C5       C      0.345900000000     0.763300000000     0.381500000000     0          
C4       C      0.356300000000     0.754050000000     0.393000000000     0          
C3       C      0.352400000000     0.736200000000     0.372000000000     0          
C2       C      0.340150000000     0.727900000000     0.339200000000     0          
C3       C      0.328900000000     0.736400000000     0.329700000000     0          
C4       C      0.332400000000     0.754150000000     0.350700000000     0          
C5       C      0.345400000000     0.830000000000     0.375800000000     0          
C4       C      0.332400000000     0.826150000000     0.343500000000     0          
C3       C      0.159150000000     0.988350000000     0.320100000000     0          
C2       C      0.141100000000     0.979850000000     0.329500000000     0          
C3       C      0.135650000000     0.986400000000     0.363500000000     0          
C4       C      0.353950000000     0.849950000000     0.386300000000     0          
C5       C      0.367050000000     0.809700000000     0.514200000000     0          
C4       C      0.382400000000     0.829800000000     0.525500000000     0          
C3       C      0.368100000000     0.800750000000     0.588800000000     0          
C2       C      0.383950000000     0.820050000000     0.599600000000     0          
C4       C      0.362300000000     0.796350000000     0.546900000000     0          
C1       C      0.391600000000     0.824800000000     0.646000000000     0          
C1       C      0.337650000000     0.707800000000     0.317400000000     0          
C1       C      0.126550000000     0.962300000000     0.307200000000     0          
C4       C      0.020500000000     0.964100000000     0.214200000000     0          
C3       C      0.031700000000     0.953150000000     0.214200000000     0          
C4       C      0.153300000000     0.876300000000     0.264600000000     0          
C3       C      0.142500000000     0.886300000000     0.264400000000     0          
C3       C      0.389800000000     0.833800000000     0.570900000000     0          
Zn1      Zn     0.140600000000     0.829650000000     0.777900000000     0          
Zn1      Zn     0.422000000000     0.852000000000     0.801700000000     0          
Zn1      Zn     0.387700000000     0.816850000000     0.739800000000     0          
O2       O      0.119400000000     0.933600000000     0.178600000000     0          
O2       O      0.089800000000     0.930550000000     0.148900000000     0          
O2       O      0.183100000000     0.880750000000     0.800700000000     0          
O2       O      0.144100000000     0.853000000000     0.810200000000     0          
O2       O      0.369850000000     0.823650000000     0.775700000000     0          
O2       O      0.394300000000     0.847650000000     0.818500000000     0          
O2       O      0.440700000000     0.880200000000     0.787900000000     0          
O2       O      0.378550000000     0.787750000000     0.753600000000     0          
C6       C      0.140000000000     0.945800000000     0.966500000000     0          
C7       C      0.144050000000     0.931600000000     0.946400000000     0          
C6       C      0.151000000000     0.933550000000     0.902000000000     0          
C7       C      0.154600000000     0.951200000000     0.879400000000     0          
C6       C      0.150600000000     0.965650000000     0.898200000000     0          
C7       C      0.142850000000     0.962500000000     0.941100000000     0          
C5       C      0.154100000000     0.917400000000     0.881500000000     0          
C4       C      0.143700000000     0.897750000000     0.893000000000     0          
C3       C      0.147600000000     0.883800000000     0.872000000000     0          
C2       C      0.159850000000     0.887750000000     0.839200000000     0          
C3       C      0.171100000000     0.907500000000     0.829700000000     0          
C4       C      0.167600000000     0.921750000000     0.850700000000     0          
C5       C      0.154600000000     0.984600000000     0.875800000000     0          
C4       C      0.167600000000     0.993750000000     0.843500000000     0          
C3       C      0.340850000000     0.829200000000     0.820100000000     0          
C2       C      0.358900000000     0.838750000000     0.829500000000     0          
C3       C      0.364350000000     0.850750000000     0.863500000000     0          
C4       C      0.146050000000     0.996000000000     0.886300000000     0          
C5       C      0.132950000000     0.942650000000     0.014200000000     0          
C4       C      0.117600000000     0.947400000000     0.025500000000     0          
C3       C      0.131900000000     0.932650000000     0.088800000000     0          
C2       C      0.116050000000     0.936100000000     0.099600000000     0          
C4       C      0.137700000000     0.934050000000     0.046900000000     0          
C1       C      0.108400000000     0.933200000000     0.146000000000     0          
C1       C      0.162350000000     0.870150000000     0.817400000000     0          
C1       C      0.373450000000     0.835750000000     0.807200000000     0          
C4       C      0.479500000000     0.943600000000     0.714200000000     0          
C3       C      0.468300000000     0.921450000000     0.714200000000     0          
C4       C      0.346700000000     0.723000000000     0.764600000000     0          
C3       C      0.357500000000     0.743800000000     0.764400000000     0          
C3       C      0.110200000000     0.944000000000     0.070900000000     0          
Zn1      Zn     0.430000000000     0.852000000000     0.698300000000     0          
Zn1      Zn     0.429150000000     0.816850000000     0.760200000000     0          
O2       O      0.066400000000     0.880600000000     0.321400000000     0          
O2       O      0.069450000000     0.910200000000     0.351100000000     0          
O2       O      0.126550000000     0.833850000000     0.727000000000     0          
O2       O      0.144200000000     0.836650000000     0.665300000000     0          
O2       O      0.453800000000     0.823650000000     0.724300000000     0          
O2       O      0.453350000000     0.847650000000     0.681500000000     0          
O2       O      0.439500000000     0.880200000000     0.712100000000     0          
O2       O      0.409200000000     0.787750000000     0.746400000000     0          
C6       C      0.054200000000     0.860000000000     0.533500000000     0          
C7       C      0.068400000000     0.855950000000     0.553600000000     0          
C6       C      0.066450000000     0.849000000000     0.598000000000     0          
C7       C      0.048800000000     0.845400000000     0.620600000000     0          
C6       C      0.034350000000     0.849400000000     0.601800000000     0          
C7       C      0.037500000000     0.857150000000     0.558900000000     0          
C5       C      0.082600000000     0.845900000000     0.618500000000     0          
C4       C      0.102250000000     0.856300000000     0.607000000000     0          
C3       C      0.116200000000     0.852400000000     0.628000000000     0          
C2       C      0.112250000000     0.840150000000     0.660800000000     0          
C3       C      0.092500000000     0.828900000000     0.670300000000     0          
C4       C      0.078250000000     0.832400000000     0.649300000000     0          
C5       C      0.015400000000     0.845400000000     0.624200000000     0          
C4       C      0.006250000000     0.832400000000     0.656500000000     0          
C3       C      0.488350000000     0.829200000000     0.679900000000     0          
C2       C      0.479850000000     0.838750000000     0.670500000000     0          
C3       C      0.486400000000     0.850750000000     0.636500000000     0          
C4       C      0.004000000000     0.853950000000     0.613700000000     0          
C5       C      0.057350000000     0.867050000000     0.485800000000     0          
C4       C      0.052600000000     0.882400000000     0.474500000000     0          
C3       C      0.067350000000     0.868100000000     0.411200000000     0          
C2       C      0.063900000000     0.883950000000     0.400400000000     0          
C4       C      0.065950000000     0.862300000000     0.453100000000     0          
C1       C      0.066800000000     0.891600000000     0.354000000000     0          
C1       C      0.129850000000     0.837650000000     0.682600000000     0          
C1       C      0.462300000000     0.835750000000     0.692800000000     0          
C4       C      0.464100000000     0.943600000000     0.785800000000     0          
C3       C      0.453150000000     0.921450000000     0.785800000000     0          
C4       C      0.376300000000     0.723000000000     0.735400000000     0          
C3       C      0.386300000000     0.743800000000     0.735600000000     0          
C3       C      0.056000000000     0.889800000000     0.429100000000     0          
O1       O      0.083225000000     0.916775000000     0.250000000000     0          
C6       C      0.010825000000     0.989175000000     0.250000000000     0          
C5       C      0.022675000000     0.977325000000     0.250000000000     0          
C2       C      0.044400000000     0.955600000000     0.250000000000     0          
C1       C      0.055225000000     0.944775000000     0.250000000000     0          
C6       C      0.155975000000     0.844025000000     0.250000000000     0          
C5       C      0.143900000000     0.856100000000     0.250000000000     0          
C2       C      0.122525000000     0.877475000000     0.250000000000     0          
C1       C      0.110775000000     0.889225000000     0.250000000000     0          
O1       O      0.416775000000     0.833550000000     0.750000000000     0          
C6       C      0.489175000000     0.978350000000     0.750000000000     0          
C5       C      0.477325000000     0.954650000000     0.750000000000     0          
C2       C      0.455600000000     0.911200000000     0.750000000000     0          
C1       C      0.444775000000     0.889550000000     0.750000000000     0          
C6       C      0.344025000000     0.688050000000     0.750000000000     0          
C5       C      0.356100000000     0.712200000000     0.750000000000     0          
C2       C      0.377475000000     0.754950000000     0.750000000000     0          
C1       C      0.389225000000     0.778450000000     0.750000000000     0          
C7       C      0.489300000000     0.978600000000     0.250000000000     0          
C7       C      0.010700000000     0.989300000000     0.750000000000     0          
H3       H      0.417390000000     0.775560000000     0.034300000000     0          
H3       H      0.454075000000     0.792995000000     0.155930000000     0          
H3       H      0.474270000000     0.835495000000     0.044660000000     0          
H2       H      0.392430000000     0.760960000000     0.079550000000     0          
H1       H      0.366905000000     0.727355000000     0.116380000000     0          
H1       H      0.412945000000     0.728975000000     0.196340000000     0          
H2       H      0.438540000000     0.760835000000     0.160900000000     0          
H2       H      0.487385000000     0.809485000000     0.168640000000     0          
H1       H      0.018155000000     0.835525000000     0.208170000000     0          
H1       H      0.022275000000     0.881220000000     0.124670000000     0          
H2       H      0.491550000000     0.856420000000     0.083880000000     0          
H2       H      0.453795000000     0.842600000000     0.000800000000     0          
H1       H      0.428590000000     0.788555000000     0.884080000000     0          
H2       H      0.426800000000     0.778950000000     0.959710000000     0          
H2       H      0.037830000000     0.990245000000     0.314800000000     0          
H1       H      0.057390000000     0.969915000000     0.314980000000     0          
H2       H      0.115650000000     0.829880000000     0.223290000000     0          
H1       H      0.096940000000     0.849955000000     0.223260000000     0          
H1       H      0.448680000000     0.850305000000     0.918240000000     0          
H3       H      0.358170000000     0.775560000000     0.465700000000     0          
H3       H      0.338920000000     0.792995000000     0.344070000000     0          
H3       H      0.361225000000     0.835495000000     0.455340000000     0          
H2       H      0.368530000000     0.760960000000     0.420450000000     0          
H1       H      0.360450000000     0.727355000000     0.383620000000     0          
H1       H      0.316030000000     0.728975000000     0.303660000000     0          
H2       H      0.322295000000     0.760835000000     0.339100000000     0          
H2       H      0.322100000000     0.809485000000     0.331360000000     0          
H1       H      0.164475000000     0.981845000000     0.291830000000     0          
H1       H      0.118780000000     0.977725000000     0.375330000000     0          
H2       H      0.364870000000     0.856420000000     0.416120000000     0          
H2       H      0.388805000000     0.842600000000     0.499200000000     0          
H1       H      0.359965000000     0.788555000000     0.615920000000     0          
H2       H      0.352150000000     0.778950000000     0.540290000000     0          
H2       H      0.009755000000     0.962170000000     0.185200000000     0          
H1       H      0.030085000000     0.942610000000     0.185020000000     0          
H2       H      0.170120000000     0.884350000000     0.276710000000     0          
H1       H      0.150045000000     0.903060000000     0.276740000000     0          
H1       H      0.401625000000     0.850305000000     0.581760000000     0          
H3       H      0.141830000000     0.917390000000     0.965700000000     0          
H3       H      0.161080000000     0.954075000000     0.844070000000     0          
H3       H      0.138775000000     0.974270000000     0.955340000000     0          
H2       H      0.131470000000     0.892430000000     0.920450000000     0          
H1       H      0.139550000000     0.866905000000     0.883620000000     0          
H1       H      0.183970000000     0.912945000000     0.803660000000     0          
H2       H      0.177705000000     0.938540000000     0.839100000000     0          
H2       H      0.177900000000     0.987385000000     0.831360000000     0          
H1       H      0.335525000000     0.817370000000     0.791830000000     0          
H1       H      0.381220000000     0.858945000000     0.875330000000     0          
H2       H      0.135130000000     0.991550000000     0.916120000000     0          
H2       H      0.111195000000     0.953795000000     0.999200000000     0          
H1       H      0.140035000000     0.928590000000     0.115920000000     0          
H2       H      0.147850000000     0.926800000000     0.040290000000     0          
H2       H      0.490245000000     0.952415000000     0.685200000000     0          
H1       H      0.469915000000     0.912525000000     0.685020000000     0          
H2       H      0.329880000000     0.714230000000     0.776710000000     0          
H1       H      0.349955000000     0.753015000000     0.776740000000     0          
H1       H      0.098375000000     0.948680000000     0.081760000000     0          
H3       H      0.082610000000     0.858170000000     0.534300000000     0          
H3       H      0.045925000000     0.838920000000     0.655930000000     0          
H3       H      0.025730000000     0.861225000000     0.544660000000     0          
H2       H      0.107570000000     0.868530000000     0.579550000000     0          
H1       H      0.133095000000     0.860450000000     0.616380000000     0          
H1       H      0.087055000000     0.816030000000     0.696340000000     0          
H2       H      0.061460000000     0.822295000000     0.660900000000     0          
H2       H      0.012615000000     0.822100000000     0.668640000000     0          
H1       H      0.481845000000     0.817370000000     0.708170000000     0          
H1       H      0.477725000000     0.858945000000     0.624670000000     0          
H2       H      0.008450000000     0.864870000000     0.583880000000     0          
H2       H      0.046205000000     0.888805000000     0.500800000000     0          
H1       H      0.071410000000     0.859965000000     0.384080000000     0          
H2       H      0.073200000000     0.852150000000     0.459710000000     0          
H2       H      0.462170000000     0.952415000000     0.814800000000     0          
H1       H      0.442610000000     0.912525000000     0.814980000000     0          
H2       H      0.384350000000     0.714230000000     0.723290000000     0          
H1       H      0.403060000000     0.753015000000     0.723260000000     0          
H1       H      0.051320000000     0.901625000000     0.418240000000     0          
H3       H      0.480265000000     0.960845000000     0.250000000000     0          
H3       H      0.019420000000     0.980265000000     0.750000000000     0          
H3       H      0.186175000000     0.872950000000     0.250000000000     0          
H3       H      0.372950000000     0.686775000000     0.750000000000     0          
Zn1      Zn     0.578000000000     0.148000000000     0.198300000000     0          
Zn1      Zn     0.612300000000     0.183150000000     0.260200000000     0          
O2       O      0.685800000000     0.119400000000     0.821400000000     0          
O2       O      0.659250000000     0.089800000000     0.851100000000     0          
O2       O      0.792700000000     0.166150000000     0.227000000000     0          
O2       O      0.807550000000     0.163350000000     0.165300000000     0          
O2       O      0.630150000000     0.176350000000     0.224300000000     0          
O2       O      0.605700000000     0.152350000000     0.181500000000     0          
O2       O      0.559300000000     0.119800000000     0.212100000000     0          
O2       O      0.621450000000     0.212250000000     0.246400000000     0          
C6       C      0.694200000000     0.140000000000     0.033500000000     0          
C7       C      0.712450000000     0.144050000000     0.053600000000     0          
C6       C      0.717450000000     0.151000000000     0.098000000000     0          
C7       C      0.703400000000     0.154600000000     0.120600000000     0          
C6       C      0.684950000000     0.150600000000     0.101800000000     0          
C7       C      0.680350000000     0.142850000000     0.058900000000     0          
C5       C      0.736700000000     0.154100000000     0.118500000000     0          
C4       C      0.745950000000     0.143700000000     0.107000000000     0          
C3       C      0.763800000000     0.147600000000     0.128000000000     0          
C2       C      0.772100000000     0.159850000000     0.160800000000     0          
C3       C      0.763600000000     0.171100000000     0.170300000000     0          
C4       C      0.745850000000     0.167600000000     0.149300000000     0          
C5       C      0.670000000000     0.154600000000     0.124200000000     0          
C4       C      0.673850000000     0.167600000000     0.156500000000     0          
C3       C      0.659150000000     0.170800000000     0.179900000000     0          
C2       C      0.641100000000     0.161250000000     0.170500000000     0          
C3       C      0.635650000000     0.149250000000     0.136500000000     0          
C4       C      0.650050000000     0.146050000000     0.113700000000     0          
C5       C      0.690300000000     0.132950000000     0.985800000000     0          
C4       C      0.670200000000     0.117600000000     0.974500000000     0          
C3       C      0.699250000000     0.131900000000     0.911200000000     0          
C2       C      0.679950000000     0.116050000000     0.900400000000     0          
C4       C      0.703650000000     0.137700000000     0.953100000000     0          
C1       C      0.675200000000     0.108400000000     0.854000000000     0          
C1       C      0.792200000000     0.162350000000     0.182600000000     0          
C1       C      0.626550000000     0.164250000000     0.192800000000     0          
C4       C      0.520500000000     0.056400000000     0.285800000000     0          
C3       C      0.531700000000     0.078550000000     0.285800000000     0          
C4       C      0.653300000000     0.277000000000     0.235400000000     0          
C3       C      0.642500000000     0.256200000000     0.235600000000     0          
C3       C      0.666200000000     0.110200000000     0.929100000000     0          
Zn1      Zn     0.810950000000     0.170350000000     0.277900000000     0          
Zn1      Zn     0.570000000000     0.148000000000     0.301700000000     0          
Zn1      Zn     0.570850000000     0.183150000000     0.239800000000     0          
O2       O      0.685800000000     0.066400000000     0.678600000000     0          
O2       O      0.659250000000     0.069450000000     0.648900000000     0          
O2       O      0.802350000000     0.119250000000     0.300700000000     0          
O2       O      0.791100000000     0.147000000000     0.310200000000     0          
O2       O      0.546200000000     0.176350000000     0.275700000000     0          
O2       O      0.546650000000     0.152350000000     0.318500000000     0          
O2       O      0.560500000000     0.119800000000     0.287900000000     0          
O2       O      0.590800000000     0.212250000000     0.253600000000     0          
C6       C      0.694200000000     0.054200000000     0.466500000000     0          
C7       C      0.712450000000     0.068400000000     0.446400000000     0          
C6       C      0.717450000000     0.066450000000     0.402000000000     0          
C7       C      0.703400000000     0.048800000000     0.379400000000     0          
C6       C      0.684950000000     0.034350000000     0.398200000000     0          
C7       C      0.680350000000     0.037500000000     0.441100000000     0          
C5       C      0.736700000000     0.082600000000     0.381500000000     0          
C4       C      0.745950000000     0.102250000000     0.393000000000     0          
C3       C      0.763800000000     0.116200000000     0.372000000000     0          
C2       C      0.772100000000     0.112250000000     0.339200000000     0          
C3       C      0.763600000000     0.092500000000     0.329700000000     0          
C4       C      0.745850000000     0.078250000000     0.350700000000     0          
C5       C      0.670000000000     0.015400000000     0.375800000000     0          
C4       C      0.673850000000     0.006250000000     0.343500000000     0          
C3       C      0.511650000000     0.170800000000     0.320100000000     0          
C2       C      0.520150000000     0.161250000000     0.329500000000     0          
C3       C      0.513600000000     0.149250000000     0.363500000000     0          
C4       C      0.650050000000     0.004000000000     0.386300000000     0          
C5       C      0.690300000000     0.057350000000     0.514200000000     0          
C4       C      0.670200000000     0.052600000000     0.525500000000     0          
C3       C      0.699250000000     0.067350000000     0.588800000000     0          
C2       C      0.679950000000     0.063900000000     0.599600000000     0          
C4       C      0.703650000000     0.065950000000     0.546900000000     0          
C1       C      0.675200000000     0.066800000000     0.646000000000     0          
C1       C      0.792200000000     0.129850000000     0.317400000000     0          
C1       C      0.537700000000     0.164250000000     0.307200000000     0          
C4       C      0.535900000000     0.056400000000     0.214200000000     0          
C3       C      0.546850000000     0.078550000000     0.214200000000     0          
C4       C      0.623700000000     0.277000000000     0.264600000000     0          
C3       C      0.613700000000     0.256200000000     0.264400000000     0          
C3       C      0.666200000000     0.056000000000     0.570900000000     0          
Zn1      Zn     0.670350000000     0.310950000000     0.777900000000     0          
Zn1      Zn     0.648000000000     0.070000000000     0.801700000000     0          
Zn1      Zn     0.683150000000     0.070850000000     0.739800000000     0          
O2       O      0.566400000000     0.185800000000     0.178600000000     0          
O2       O      0.569450000000     0.159250000000     0.148900000000     0          
O2       O      0.619250000000     0.302350000000     0.800700000000     0          
O2       O      0.647000000000     0.291100000000     0.810200000000     0          
O2       O      0.676350000000     0.046200000000     0.775700000000     0          
O2       O      0.652350000000     0.046650000000     0.818500000000     0          
O2       O      0.619800000000     0.060500000000     0.787900000000     0          
O2       O      0.712250000000     0.090800000000     0.753600000000     0          
C6       C      0.554200000000     0.194200000000     0.966500000000     0          
C7       C      0.568400000000     0.212450000000     0.946400000000     0          
C6       C      0.566450000000     0.217450000000     0.902000000000     0          
C7       C      0.548800000000     0.203400000000     0.879400000000     0          
C6       C      0.534350000000     0.184950000000     0.898200000000     0          
C7       C      0.537500000000     0.180350000000     0.941100000000     0          
C5       C      0.582600000000     0.236700000000     0.881500000000     0          
C4       C      0.602250000000     0.245950000000     0.893000000000     0          
C3       C      0.616200000000     0.263800000000     0.872000000000     0          
C2       C      0.612250000000     0.272100000000     0.839200000000     0          
C3       C      0.592500000000     0.263600000000     0.829700000000     0          
C4       C      0.578250000000     0.245850000000     0.850700000000     0          
C5       C      0.515400000000     0.170000000000     0.875800000000     0          
C4       C      0.506250000000     0.173850000000     0.843500000000     0          
C3       C      0.670800000000     0.011650000000     0.820100000000     0          
C2       C      0.661250000000     0.020150000000     0.829500000000     0          
C3       C      0.649250000000     0.013600000000     0.863500000000     0          
C4       C      0.504000000000     0.150050000000     0.886300000000     0          
C5       C      0.557350000000     0.190300000000     0.014200000000     0          
C4       C      0.552600000000     0.170200000000     0.025500000000     0          
C3       C      0.567350000000     0.199250000000     0.088800000000     0          
C2       C      0.563900000000     0.179950000000     0.099600000000     0          
C4       C      0.565950000000     0.203650000000     0.046900000000     0          
C1       C      0.566800000000     0.175200000000     0.146000000000     0          
C1       C      0.629850000000     0.292200000000     0.817400000000     0          
C1       C      0.664250000000     0.037700000000     0.807200000000     0          
C4       C      0.556400000000     0.035900000000     0.714200000000     0          
C3       C      0.578550000000     0.046850000000     0.714200000000     0          
C4       C      0.777000000000     0.123700000000     0.764600000000     0          
C3       C      0.756200000000     0.113700000000     0.764400000000     0          
C3       C      0.556000000000     0.166200000000     0.070900000000     0          
Zn1      Zn     0.648000000000     0.078000000000     0.698300000000     0          
Zn1      Zn     0.683150000000     0.112300000000     0.760200000000     0          
O2       O      0.619400000000     0.185800000000     0.321400000000     0          
O2       O      0.589800000000     0.159250000000     0.351100000000     0          
O2       O      0.666150000000     0.292700000000     0.727000000000     0          
O2       O      0.663350000000     0.307550000000     0.665300000000     0          
O2       O      0.676350000000     0.130150000000     0.724300000000     0          
O2       O      0.652350000000     0.105700000000     0.681500000000     0          
O2       O      0.619800000000     0.059300000000     0.712100000000     0          
O2       O      0.712250000000     0.121450000000     0.746400000000     0          
C6       C      0.640000000000     0.194200000000     0.533500000000     0          
C7       C      0.644050000000     0.212450000000     0.553600000000     0          
C6       C      0.651000000000     0.217450000000     0.598000000000     0          
C7       C      0.654600000000     0.203400000000     0.620600000000     0          
C6       C      0.650600000000     0.184950000000     0.601800000000     0          
C7       C      0.642850000000     0.180350000000     0.558900000000     0          
C5       C      0.654100000000     0.236700000000     0.618500000000     0          
C4       C      0.643700000000     0.245950000000     0.607000000000     0          
C3       C      0.647600000000     0.263800000000     0.628000000000     0          
C2       C      0.659850000000     0.272100000000     0.660800000000     0          
C3       C      0.671100000000     0.263600000000     0.670300000000     0          
C4       C      0.667600000000     0.245850000000     0.649300000000     0          
C5       C      0.654600000000     0.170000000000     0.624200000000     0          
C4       C      0.667600000000     0.173850000000     0.656500000000     0          
C3       C      0.670800000000     0.159150000000     0.679900000000     0          
C2       C      0.661250000000     0.141100000000     0.670500000000     0          
C3       C      0.649250000000     0.135650000000     0.636500000000     0          
C4       C      0.646050000000     0.150050000000     0.613700000000     0          
C5       C      0.632950000000     0.190300000000     0.485800000000     0          
C4       C      0.617600000000     0.170200000000     0.474500000000     0          
C3       C      0.631900000000     0.199250000000     0.411200000000     0          
C2       C      0.616050000000     0.179950000000     0.400400000000     0          
C4       C      0.637700000000     0.203650000000     0.453100000000     0          
C1       C      0.608400000000     0.175200000000     0.354000000000     0          
C1       C      0.662350000000     0.292200000000     0.682600000000     0          
C1       C      0.664250000000     0.126550000000     0.692800000000     0          
C4       C      0.556400000000     0.020500000000     0.785800000000     0          
C3       C      0.578550000000     0.031700000000     0.785800000000     0          
C4       C      0.777000000000     0.153300000000     0.735400000000     0          
C3       C      0.756200000000     0.142500000000     0.735600000000     0          
C3       C      0.610200000000     0.166200000000     0.429100000000     0          
Zn1      Zn     0.833330000000     0.166665000000     0.190400000000     0          
Zn1      Zn     0.666665000000     0.333330000000     0.690400000000     0          
O1       O      0.583225000000     0.166450000000     0.250000000000     0          
C6       C      0.510825000000     0.021650000000     0.250000000000     0          
C5       C      0.522675000000     0.045350000000     0.250000000000     0          
C2       C      0.544400000000     0.088800000000     0.250000000000     0          
C1       C      0.555225000000     0.110450000000     0.250000000000     0          
C6       C      0.655975000000     0.311950000000     0.250000000000     0          
C5       C      0.643900000000     0.287800000000     0.250000000000     0          
C2       C      0.622525000000     0.245050000000     0.250000000000     0          
C1       C      0.610775000000     0.221550000000     0.250000000000     0          
O1       O      0.666450000000     0.083225000000     0.750000000000     0          
C6       C      0.521650000000     0.010825000000     0.750000000000     0          
C5       C      0.545350000000     0.022675000000     0.750000000000     0          
C2       C      0.588800000000     0.044400000000     0.750000000000     0          
C1       C      0.610450000000     0.055225000000     0.750000000000     0          
C6       C      0.811950000000     0.155975000000     0.750000000000     0          
C5       C      0.787800000000     0.143900000000     0.750000000000     0          
C2       C      0.745050000000     0.122525000000     0.750000000000     0          
C1       C      0.721550000000     0.110775000000     0.750000000000     0          
O1       O      0.833330000000     0.166665000000     0.250000000000     0          
O1       O      0.666665000000     0.333330000000     0.750000000000     0          
C7       C      0.521400000000     0.010700000000     0.250000000000     0          
C7       C      0.510700000000     0.021400000000     0.750000000000     0          
C7       C      0.644800000000     0.322400000000     0.250000000000     0          
C7       C      0.677600000000     0.322400000000     0.250000000000     0          
C7       C      0.822400000000     0.144800000000     0.750000000000     0          
C7       C      0.822400000000     0.177600000000     0.750000000000     0          
H3       H      0.724440000000     0.141830000000     0.034300000000     0          
H3       H      0.707005000000     0.161080000000     0.155930000000     0          
H3       H      0.664505000000     0.138775000000     0.044660000000     0          
H2       H      0.739040000000     0.131470000000     0.079550000000     0          
H1       H      0.772645000000     0.139550000000     0.116380000000     0          
H1       H      0.771025000000     0.183970000000     0.196340000000     0          
H2       H      0.739165000000     0.177705000000     0.160900000000     0          
H2       H      0.690515000000     0.177900000000     0.168640000000     0          
H1       H      0.664475000000     0.182630000000     0.208170000000     0          
H1       H      0.618780000000     0.141055000000     0.124670000000     0          
H2       H      0.643580000000     0.135130000000     0.083880000000     0          
H2       H      0.657400000000     0.111195000000     0.000800000000     0          
H1       H      0.711445000000     0.140035000000     0.884080000000     0          
H2       H      0.721050000000     0.147850000000     0.959710000000     0          
H2       H      0.509755000000     0.047585000000     0.314800000000     0          
H1       H      0.530085000000     0.087475000000     0.314980000000     0          
H2       H      0.670120000000     0.285770000000     0.223290000000     0          
H1       H      0.650045000000     0.246985000000     0.223260000000     0          
H1       H      0.649695000000     0.098375000000     0.918240000000     0          
H3       H      0.724440000000     0.082610000000     0.465700000000     0          
H3       H      0.707005000000     0.045925000000     0.344070000000     0          
H3       H      0.664505000000     0.025730000000     0.455340000000     0          
H2       H      0.739040000000     0.107570000000     0.420450000000     0          
H1       H      0.772645000000     0.133095000000     0.383620000000     0          
H1       H      0.771025000000     0.087055000000     0.303660000000     0          
H2       H      0.739165000000     0.061460000000     0.339100000000     0          
H2       H      0.690515000000     0.012615000000     0.331360000000     0          
H1       H      0.518155000000     0.182630000000     0.291830000000     0          
H1       H      0.522275000000     0.141055000000     0.375330000000     0          
H2       H      0.643580000000     0.008450000000     0.416120000000     0          
H2       H      0.657400000000     0.046205000000     0.499200000000     0          
H1       H      0.711445000000     0.071410000000     0.615920000000     0          
H2       H      0.721050000000     0.073200000000     0.540290000000     0          
H2       H      0.537830000000     0.047585000000     0.185200000000     0          
H1       H      0.557390000000     0.087475000000     0.185020000000     0          
H2       H      0.615650000000     0.285770000000     0.276710000000     0          
H1       H      0.596940000000     0.246985000000     0.276740000000     0          
H1       H      0.649695000000     0.051320000000     0.581760000000     0          
H3       H      0.582610000000     0.224440000000     0.965700000000     0          
H3       H      0.545925000000     0.207005000000     0.844070000000     0          
H3       H      0.525730000000     0.164505000000     0.955340000000     0          
H2       H      0.607570000000     0.239040000000     0.920450000000     0          
H1       H      0.633095000000     0.272645000000     0.883620000000     0          
H1       H      0.587055000000     0.271025000000     0.803660000000     0          
H2       H      0.561460000000     0.239165000000     0.839100000000     0          
H2       H      0.512615000000     0.190515000000     0.831360000000     0          
H1       H      0.682630000000     0.018155000000     0.791830000000     0          
H1       H      0.641055000000     0.022275000000     0.875330000000     0          
H2       H      0.508450000000     0.143580000000     0.916120000000     0          
H2       H      0.546205000000     0.157400000000     0.999200000000     0          
H1       H      0.571410000000     0.211445000000     0.115920000000     0          
H2       H      0.573200000000     0.221050000000     0.040290000000     0          
H2       H      0.547585000000     0.037830000000     0.685200000000     0          
H1       H      0.587475000000     0.057390000000     0.685020000000     0          
H2       H      0.785770000000     0.115650000000     0.776710000000     0          
H1       H      0.746985000000     0.096940000000     0.776740000000     0          
H1       H      0.551320000000     0.149695000000     0.081760000000     0          
H3       H      0.641830000000     0.224440000000     0.534300000000     0          
H3       H      0.661080000000     0.207005000000     0.655930000000     0          
H3       H      0.638775000000     0.164505000000     0.544660000000     0          
H2       H      0.631470000000     0.239040000000     0.579550000000     0          
H1       H      0.639550000000     0.272645000000     0.616380000000     0          
H1       H      0.683970000000     0.271025000000     0.696340000000     0          
H2       H      0.677705000000     0.239165000000     0.660900000000     0          
H2       H      0.677900000000     0.190515000000     0.668640000000     0          
H1       H      0.682630000000     0.164475000000     0.708170000000     0          
H1       H      0.641055000000     0.118780000000     0.624670000000     0          
H2       H      0.635130000000     0.143580000000     0.583880000000     0          
H2       H      0.611195000000     0.157400000000     0.500800000000     0          
H1       H      0.640035000000     0.211445000000     0.384080000000     0          
H2       H      0.647850000000     0.221050000000     0.459710000000     0          
H2       H      0.547585000000     0.009755000000     0.814800000000     0          
H1       H      0.587475000000     0.030085000000     0.814980000000     0          
H2       H      0.785770000000     0.170120000000     0.723290000000     0          
H1       H      0.746985000000     0.150045000000     0.723260000000     0          
H1       H      0.598375000000     0.149695000000     0.418240000000     0          
H3       H      0.539155000000     0.019420000000     0.250000000000     0          
H3       H      0.519735000000     0.039155000000     0.750000000000     0          
H3       H      0.627050000000     0.313225000000     0.250000000000     0          
H3       H      0.813225000000     0.186175000000     0.750000000000     0          
Zn1      Zn     0.852000000000     0.430000000000     0.198300000000     0          
Zn1      Zn     0.816850000000     0.429150000000     0.260200000000     0          
O2       O      0.880600000000     0.066400000000     0.821400000000     0          
O2       O      0.910200000000     0.069450000000     0.851100000000     0          
O2       O      0.833850000000     0.126550000000     0.227000000000     0          
O2       O      0.836650000000     0.144200000000     0.165300000000     0          
O2       O      0.823650000000     0.453800000000     0.224300000000     0          
O2       O      0.847650000000     0.453350000000     0.181500000000     0          
O2       O      0.880200000000     0.439500000000     0.212100000000     0          
O2       O      0.787750000000     0.409200000000     0.246400000000     0          
C6       C      0.860000000000     0.054200000000     0.033500000000     0          
C7       C      0.855950000000     0.068400000000     0.053600000000     0          
C6       C      0.849000000000     0.066450000000     0.098000000000     0          
C7       C      0.845400000000     0.048800000000     0.120600000000     0          
C6       C      0.849400000000     0.034350000000     0.101800000000     0          
C7       C      0.857150000000     0.037500000000     0.058900000000     0          
C5       C      0.845900000000     0.082600000000     0.118500000000     0          
C4       C      0.856300000000     0.102250000000     0.107000000000     0          
C3       C      0.852400000000     0.116200000000     0.128000000000     0          
C2       C      0.840150000000     0.112250000000     0.160800000000     0          
C3       C      0.828900000000     0.092500000000     0.170300000000     0          
C4       C      0.832400000000     0.078250000000     0.149300000000     0          
C5       C      0.845400000000     0.015400000000     0.124200000000     0          
C4       C      0.832400000000     0.006250000000     0.156500000000     0          
C3       C      0.829200000000     0.488350000000     0.179900000000     0          
C2       C      0.838750000000     0.479850000000     0.170500000000     0          
C3       C      0.850750000000     0.486400000000     0.136500000000     0          
C4       C      0.853950000000     0.004000000000     0.113700000000     0          
C5       C      0.867050000000     0.057350000000     0.985800000000     0          
C4       C      0.882400000000     0.052600000000     0.974500000000     0          
C3       C      0.868100000000     0.067350000000     0.911200000000     0          
C2       C      0.883950000000     0.063900000000     0.900400000000     0          
C4       C      0.862300000000     0.065950000000     0.953100000000     0          
C1       C      0.891600000000     0.066800000000     0.854000000000     0          
C1       C      0.837650000000     0.129850000000     0.182600000000     0          
C1       C      0.835750000000     0.462300000000     0.192800000000     0          
C4       C      0.943600000000     0.464100000000     0.285800000000     0          
C3       C      0.921450000000     0.453150000000     0.285800000000     0          
C4       C      0.723000000000     0.376300000000     0.235400000000     0          
C3       C      0.743800000000     0.386300000000     0.235600000000     0          
C3       C      0.889800000000     0.056000000000     0.929100000000     0          
Zn1      Zn     0.829650000000     0.140600000000     0.277900000000     0          
Zn1      Zn     0.852000000000     0.422000000000     0.301700000000     0          
Zn1      Zn     0.816850000000     0.387700000000     0.239800000000     0          
O2       O      0.933600000000     0.119400000000     0.678600000000     0          
O2       O      0.930550000000     0.089800000000     0.648900000000     0          
O2       O      0.880750000000     0.183100000000     0.300700000000     0          
O2       O      0.853000000000     0.144100000000     0.310200000000     0          
O2       O      0.823650000000     0.369850000000     0.275700000000     0          
O2       O      0.847650000000     0.394300000000     0.318500000000     0          
O2       O      0.880200000000     0.440700000000     0.287900000000     0          
O2       O      0.787750000000     0.378550000000     0.253600000000     0          
C6       C      0.945800000000     0.140000000000     0.466500000000     0          
C7       C      0.931600000000     0.144050000000     0.446400000000     0          
C6       C      0.933550000000     0.151000000000     0.402000000000     0          
C7       C      0.951200000000     0.154600000000     0.379400000000     0          
C6       C      0.965650000000     0.150600000000     0.398200000000     0          
C7       C      0.962500000000     0.142850000000     0.441100000000     0          
C5       C      0.917400000000     0.154100000000     0.381500000000     0          
C4       C      0.897750000000     0.143700000000     0.393000000000     0          
C3       C      0.883800000000     0.147600000000     0.372000000000     0          
C2       C      0.887750000000     0.159850000000     0.339200000000     0          
C3       C      0.907500000000     0.171100000000     0.329700000000     0          
C4       C      0.921750000000     0.167600000000     0.350700000000     0          
C5       C      0.984600000000     0.154600000000     0.375800000000     0          
C4       C      0.993750000000     0.167600000000     0.343500000000     0          
C3       C      0.829200000000     0.340850000000     0.320100000000     0          
C2       C      0.838750000000     0.358900000000     0.329500000000     0          
C3       C      0.850750000000     0.364350000000     0.363500000000     0          
C4       C      0.996000000000     0.146050000000     0.386300000000     0          
C5       C      0.942650000000     0.132950000000     0.514200000000     0          
C4       C      0.947400000000     0.117600000000     0.525500000000     0          
C3       C      0.932650000000     0.131900000000     0.588800000000     0          
C2       C      0.936100000000     0.116050000000     0.599600000000     0          
C4       C      0.934050000000     0.137700000000     0.546900000000     0          
C1       C      0.933200000000     0.108400000000     0.646000000000     0          
C1       C      0.870150000000     0.162350000000     0.317400000000     0          
C1       C      0.835750000000     0.373450000000     0.307200000000     0          
C4       C      0.943600000000     0.479500000000     0.214200000000     0          
C3       C      0.921450000000     0.468300000000     0.214200000000     0          
C4       C      0.723000000000     0.346700000000     0.264600000000     0          
C3       C      0.743800000000     0.357500000000     0.264400000000     0          
C3       C      0.944000000000     0.110200000000     0.570900000000     0          
Zn1      Zn     0.689050000000     0.359400000000     0.777900000000     0          
Zn1      Zn     0.930000000000     0.078000000000     0.801700000000     0          
Zn1      Zn     0.929150000000     0.112300000000     0.739800000000     0          
O2       O      0.814200000000     0.380600000000     0.178600000000     0          
O2       O      0.840750000000     0.410200000000     0.148900000000     0          
O2       O      0.697650000000     0.316900000000     0.800700000000     0          
O2       O      0.708900000000     0.355900000000     0.810200000000     0          
O2       O      0.953800000000     0.130150000000     0.775700000000     0          
O2       O      0.953350000000     0.105700000000     0.818500000000     0          
O2       O      0.939500000000     0.059300000000     0.787900000000     0          
O2       O      0.909200000000     0.121450000000     0.753600000000     0          
C6       C      0.805800000000     0.360000000000     0.966500000000     0          
C7       C      0.787550000000     0.355950000000     0.946400000000     0          
C6       C      0.782550000000     0.349000000000     0.902000000000     0          
C7       C      0.796600000000     0.345400000000     0.879400000000     0          
C6       C      0.815050000000     0.349400000000     0.898200000000     0          
C7       C      0.819650000000     0.357150000000     0.941100000000     0          
C5       C      0.763300000000     0.345900000000     0.881500000000     0          
C4       C      0.754050000000     0.356300000000     0.893000000000     0          
C3       C      0.736200000000     0.352400000000     0.872000000000     0          
C2       C      0.727900000000     0.340150000000     0.839200000000     0          
C3       C      0.736400000000     0.328900000000     0.829700000000     0          
C4       C      0.754150000000     0.332400000000     0.850700000000     0          
C5       C      0.830000000000     0.345400000000     0.875800000000     0          
C4       C      0.826150000000     0.332400000000     0.843500000000     0          
C3       C      0.988350000000     0.159150000000     0.820100000000     0          
C2       C      0.979850000000     0.141100000000     0.829500000000     0          
C3       C      0.986400000000     0.135650000000     0.863500000000     0          
C4       C      0.849950000000     0.353950000000     0.886300000000     0          
C5       C      0.809700000000     0.367050000000     0.014200000000     0          
C4       C      0.829800000000     0.382400000000     0.025500000000     0          
C3       C      0.800750000000     0.368100000000     0.088800000000     0          
C2       C      0.820050000000     0.383950000000     0.099600000000     0          
C4       C      0.796350000000     0.362300000000     0.046900000000     0          
C1       C      0.824800000000     0.391600000000     0.146000000000     0          
C1       C      0.707800000000     0.337650000000     0.817400000000     0          
C1       C      0.962300000000     0.126550000000     0.807200000000     0          
C4       C      0.964100000000     0.020500000000     0.714200000000     0          
C3       C      0.953150000000     0.031700000000     0.714200000000     0          
C4       C      0.876300000000     0.153300000000     0.764600000000     0          
C3       C      0.886300000000     0.142500000000     0.764400000000     0          
C3       C      0.833800000000     0.389800000000     0.070900000000     0          
Zn1      Zn     0.922000000000     0.070000000000     0.698300000000     0          
Zn1      Zn     0.887700000000     0.070850000000     0.760200000000     0          
O2       O      0.814200000000     0.433600000000     0.321400000000     0          
O2       O      0.840750000000     0.430550000000     0.351100000000     0          
O2       O      0.707300000000     0.373450000000     0.727000000000     0          
O2       O      0.692450000000     0.355800000000     0.665300000000     0          
O2       O      0.869850000000     0.046200000000     0.724300000000     0          
O2       O      0.894300000000     0.046650000000     0.681500000000     0          
O2       O      0.940700000000     0.060500000000     0.712100000000     0          
O2       O      0.878550000000     0.090800000000     0.746400000000     0          
C6       C      0.805800000000     0.445800000000     0.533500000000     0          
C7       C      0.787550000000     0.431600000000     0.553600000000     0          
C6       C      0.782550000000     0.433550000000     0.598000000000     0          
C7       C      0.796600000000     0.451200000000     0.620600000000     0          
C6       C      0.815050000000     0.465650000000     0.601800000000     0          
C7       C      0.819650000000     0.462500000000     0.558900000000     0          
C5       C      0.763300000000     0.417400000000     0.618500000000     0          
C4       C      0.754050000000     0.397750000000     0.607000000000     0          
C3       C      0.736200000000     0.383800000000     0.628000000000     0          
C2       C      0.727900000000     0.387750000000     0.660800000000     0          
C3       C      0.736400000000     0.407500000000     0.670300000000     0          
C4       C      0.754150000000     0.421750000000     0.649300000000     0          
C5       C      0.830000000000     0.484600000000     0.624200000000     0          
C4       C      0.826150000000     0.493750000000     0.656500000000     0          
C3       C      0.840850000000     0.011650000000     0.679900000000     0          
C2       C      0.858900000000     0.020150000000     0.670500000000     0          
C3       C      0.864350000000     0.013600000000     0.636500000000     0          
C4       C      0.849950000000     0.496000000000     0.613700000000     0          
C5       C      0.809700000000     0.442650000000     0.485800000000     0          
C4       C      0.829800000000     0.447400000000     0.474500000000     0          
C3       C      0.800750000000     0.432650000000     0.411200000000     0          
C2       C      0.820050000000     0.436100000000     0.400400000000     0          
C4       C      0.796350000000     0.434050000000     0.453100000000     0          
C1       C      0.824800000000     0.433200000000     0.354000000000     0          
C1       C      0.707800000000     0.370150000000     0.682600000000     0          
C1       C      0.873450000000     0.037700000000     0.692800000000     0          
C4       C      0.979500000000     0.035900000000     0.785800000000     0          
C3       C      0.968300000000     0.046850000000     0.785800000000     0          
C4       C      0.846700000000     0.123700000000     0.735400000000     0          
C3       C      0.857500000000     0.113700000000     0.735600000000     0          
C3       C      0.833800000000     0.444000000000     0.429100000000     0          
O1       O      0.833550000000     0.416775000000     0.250000000000     0          
C6       C      0.978350000000     0.489175000000     0.250000000000     0          
C5       C      0.954650000000     0.477325000000     0.250000000000     0          
C2       C      0.911200000000     0.455600000000     0.250000000000     0          
C1       C      0.889550000000     0.444775000000     0.250000000000     0          
C6       C      0.688050000000     0.344025000000     0.250000000000     0          
C5       C      0.712200000000     0.356100000000     0.250000000000     0          
C2       C      0.754950000000     0.377475000000     0.250000000000     0          
C1       C      0.778450000000     0.389225000000     0.250000000000     0          
O1       O      0.916775000000     0.083225000000     0.750000000000     0          
C6       C      0.989175000000     0.010825000000     0.750000000000     0          
C5       C      0.977325000000     0.022675000000     0.750000000000     0          
C2       C      0.955600000000     0.044400000000     0.750000000000     0          
C1       C      0.944775000000     0.055225000000     0.750000000000     0          
C6       C      0.844025000000     0.155975000000     0.750000000000     0          
C5       C      0.856100000000     0.143900000000     0.750000000000     0          
C2       C      0.877475000000     0.122525000000     0.750000000000     0          
C1       C      0.889225000000     0.110775000000     0.750000000000     0          
C7       C      0.989300000000     0.010700000000     0.250000000000     0          
C7       C      0.978600000000     0.489300000000     0.750000000000     0          
C7       C      0.677600000000     0.355200000000     0.250000000000     0          
C7       C      0.855200000000     0.177600000000     0.750000000000     0          
H3       H      0.858170000000     0.082610000000     0.034300000000     0          
H3       H      0.838920000000     0.045925000000     0.155930000000     0          
H3       H      0.861225000000     0.025730000000     0.044660000000     0          
H2       H      0.868530000000     0.107570000000     0.079550000000     0          
H1       H      0.860450000000     0.133095000000     0.116380000000     0          
H1       H      0.816030000000     0.087055000000     0.196340000000     0          
H2       H      0.822295000000     0.061460000000     0.160900000000     0          
H2       H      0.822100000000     0.012615000000     0.168640000000     0          
H1       H      0.817370000000     0.481845000000     0.208170000000     0          
H1       H      0.858945000000     0.477725000000     0.124670000000     0          
H2       H      0.864870000000     0.008450000000     0.083880000000     0          
H2       H      0.888805000000     0.046205000000     0.000800000000     0          
H1       H      0.859965000000     0.071410000000     0.884080000000     0          
H2       H      0.852150000000     0.073200000000     0.959710000000     0          
H2       H      0.952415000000     0.462170000000     0.314800000000     0          
H1       H      0.912525000000     0.442610000000     0.314980000000     0          
H2       H      0.714230000000     0.384350000000     0.223290000000     0          
H1       H      0.753015000000     0.403060000000     0.223260000000     0          
H1       H      0.901625000000     0.051320000000     0.918240000000     0          
H3       H      0.917390000000     0.141830000000     0.465700000000     0          
H3       H      0.954075000000     0.161080000000     0.344070000000     0          
H3       H      0.974270000000     0.138775000000     0.455340000000     0          
H2       H      0.892430000000     0.131470000000     0.420450000000     0          
H1       H      0.866905000000     0.139550000000     0.383620000000     0          
H1       H      0.912945000000     0.183970000000     0.303660000000     0          
H2       H      0.938540000000     0.177705000000     0.339100000000     0          
H2       H      0.987385000000     0.177900000000     0.331360000000     0          
H1       H      0.817370000000     0.335525000000     0.291830000000     0          
H1       H      0.858945000000     0.381220000000     0.375330000000     0          
H2       H      0.991550000000     0.135130000000     0.416120000000     0          
H2       H      0.953795000000     0.111195000000     0.499200000000     0          
H1       H      0.928590000000     0.140035000000     0.615920000000     0          
H2       H      0.926800000000     0.147850000000     0.540290000000     0          
H2       H      0.952415000000     0.490245000000     0.185200000000     0          
H1       H      0.912525000000     0.469915000000     0.185020000000     0          
H2       H      0.714230000000     0.329880000000     0.276710000000     0          
H1       H      0.753015000000     0.349955000000     0.276740000000     0          
H1       H      0.948680000000     0.098375000000     0.581760000000     0          
H3       H      0.775560000000     0.358170000000     0.965700000000     0          
H3       H      0.792995000000     0.338920000000     0.844070000000     0          
H3       H      0.835495000000     0.361225000000     0.955340000000     0          
H2       H      0.760960000000     0.368530000000     0.920450000000     0          
H1       H      0.727355000000     0.360450000000     0.883620000000     0          
H1       H      0.728975000000     0.316030000000     0.803660000000     0          
H2       H      0.760835000000     0.322295000000     0.839100000000     0          
H2       H      0.809485000000     0.322100000000     0.831360000000     0          
H1       H      0.981845000000     0.164475000000     0.791830000000     0          
H1       H      0.977725000000     0.118780000000     0.875330000000     0          
H2       H      0.856420000000     0.364870000000     0.916120000000     0          
H2       H      0.842600000000     0.388805000000     0.999200000000     0          
H1       H      0.788555000000     0.359965000000     0.115920000000     0          
H2       H      0.778950000000     0.352150000000     0.040290000000     0          
H2       H      0.962170000000     0.009755000000     0.685200000000     0          
H1       H      0.942610000000     0.030085000000     0.685020000000     0          
H2       H      0.884350000000     0.170120000000     0.776710000000     0          
H1       H      0.903060000000     0.150045000000     0.776740000000     0          
H1       H      0.850305000000     0.401625000000     0.081760000000     0          
H3       H      0.775560000000     0.417390000000     0.534300000000     0          
H3       H      0.792995000000     0.454075000000     0.655930000000     0          
H3       H      0.835495000000     0.474270000000     0.544660000000     0          
H2       H      0.760960000000     0.392430000000     0.579550000000     0          
H1       H      0.727355000000     0.366905000000     0.616380000000     0          
H1       H      0.728975000000     0.412945000000     0.696340000000     0          
H2       H      0.760835000000     0.438540000000     0.660900000000     0          
H2       H      0.809485000000     0.487385000000     0.668640000000     0          
H1       H      0.835525000000     0.018155000000     0.708170000000     0          
H1       H      0.881220000000     0.022275000000     0.624670000000     0          
H2       H      0.856420000000     0.491550000000     0.583880000000     0          
H2       H      0.842600000000     0.453795000000     0.500800000000     0          
H1       H      0.788555000000     0.428590000000     0.384080000000     0          
H2       H      0.778950000000     0.426800000000     0.459710000000     0          
H2       H      0.990245000000     0.037830000000     0.814800000000     0          
H1       H      0.969915000000     0.057390000000     0.814980000000     0          
H2       H      0.829880000000     0.115650000000     0.723290000000     0          
H1       H      0.849955000000     0.096940000000     0.723260000000     0          
H1       H      0.850305000000     0.448680000000     0.418240000000     0          
H3       H      0.980580000000     0.019735000000     0.250000000000     0          
H3       H      0.960845000000     0.480580000000     0.750000000000     0          
H3       H      0.686775000000     0.313825000000     0.250000000000     0          
H3       H      0.813825000000     0.127050000000     0.750000000000     0          
Zn1      Zn     0.570000000000     0.422000000000     0.198300000000     0          
Zn1      Zn     0.570850000000     0.387700000000     0.260200000000     0          
O2       O      0.933600000000     0.314200000000     0.821400000000     0          
O2       O      0.930550000000     0.340750000000     0.851100000000     0          
O2       O      0.873450000000     0.207300000000     0.227000000000     0          
O2       O      0.855800000000     0.192450000000     0.165300000000     0          
O2       O      0.546200000000     0.369850000000     0.224300000000     0          
O2       O      0.546650000000     0.394300000000     0.181500000000     0          
O2       O      0.560500000000     0.440700000000     0.212100000000     0          
O2       O      0.590800000000     0.378550000000     0.246400000000     0          
C6       C      0.945800000000     0.305800000000     0.033500000000     0          
C7       C      0.931600000000     0.287550000000     0.053600000000     0          
C6       C      0.933550000000     0.282550000000     0.098000000000     0          
C7       C      0.951200000000     0.296600000000     0.120600000000     0          
C6       C      0.965650000000     0.315050000000     0.101800000000     0          
C7       C      0.962500000000     0.319650000000     0.058900000000     0          
C5       C      0.917400000000     0.263300000000     0.118500000000     0          
C4       C      0.897750000000     0.254050000000     0.107000000000     0          
C3       C      0.883800000000     0.236200000000     0.128000000000     0          
C2       C      0.887750000000     0.227900000000     0.160800000000     0          
C3       C      0.907500000000     0.236400000000     0.170300000000     0          
C4       C      0.921750000000     0.254150000000     0.149300000000     0          
C5       C      0.984600000000     0.330000000000     0.124200000000     0          
C4       C      0.993750000000     0.326150000000     0.156500000000     0          
C3       C      0.511650000000     0.340850000000     0.179900000000     0          
C2       C      0.520150000000     0.358900000000     0.170500000000     0          
C3       C      0.513600000000     0.364350000000     0.136500000000     0          
C4       C      0.996000000000     0.349950000000     0.113700000000     0          
C5       C      0.942650000000     0.309700000000     0.985800000000     0          
C4       C      0.947400000000     0.329800000000     0.974500000000     0          
C3       C      0.932650000000     0.300750000000     0.911200000000     0          
C2       C      0.936100000000     0.320050000000     0.900400000000     0          
C4       C      0.934050000000     0.296350000000     0.953100000000     0          
C1       C      0.933200000000     0.324800000000     0.854000000000     0          
C1       C      0.870150000000     0.207800000000     0.182600000000     0          
C1       C      0.537700000000     0.373450000000     0.192800000000     0          
C4       C      0.535900000000     0.479500000000     0.285800000000     0          
C3       C      0.546850000000     0.468300000000     0.285800000000     0          
C4       C      0.623700000000     0.346700000000     0.235400000000     0          
C3       C      0.613700000000     0.357500000000     0.235600000000     0          
C3       C      0.944000000000     0.333800000000     0.929100000000     0          
Zn1      Zn     0.859400000000     0.189050000000     0.277900000000     0          
Zn1      Zn     0.578000000000     0.430000000000     0.301700000000     0          
Zn1      Zn     0.612300000000     0.429150000000     0.239800000000     0          
O2       O      0.880600000000     0.314200000000     0.678600000000     0          
O2       O      0.910200000000     0.340750000000     0.648900000000     0          
O2       O      0.816900000000     0.197650000000     0.300700000000     0          
O2       O      0.855900000000     0.208900000000     0.310200000000     0          
O2       O      0.630150000000     0.453800000000     0.275700000000     0          
O2       O      0.605700000000     0.453350000000     0.318500000000     0          
O2       O      0.559300000000     0.439500000000     0.287900000000     0          
O2       O      0.621450000000     0.409200000000     0.253600000000     0          
C6       C      0.860000000000     0.305800000000     0.466500000000     0          
C7       C      0.855950000000     0.287550000000     0.446400000000     0          
C6       C      0.849000000000     0.282550000000     0.402000000000     0          
C7       C      0.845400000000     0.296600000000     0.379400000000     0          
C6       C      0.849400000000     0.315050000000     0.398200000000     0          
C7       C      0.857150000000     0.319650000000     0.441100000000     0          
C5       C      0.845900000000     0.263300000000     0.381500000000     0          
C4       C      0.856300000000     0.254050000000     0.393000000000     0          
C3       C      0.852400000000     0.236200000000     0.372000000000     0          
C2       C      0.840150000000     0.227900000000     0.339200000000     0          
C3       C      0.828900000000     0.236400000000     0.329700000000     0          
C4       C      0.832400000000     0.254150000000     0.350700000000     0          
C5       C      0.845400000000     0.330000000000     0.375800000000     0          
C4       C      0.832400000000     0.326150000000     0.343500000000     0          
C3       C      0.659150000000     0.488350000000     0.320100000000     0          
C2       C      0.641100000000     0.479850000000     0.329500000000     0          
C3       C      0.635650000000     0.486400000000     0.363500000000     0          
C4       C      0.853950000000     0.349950000000     0.386300000000     0          
C5       C      0.867050000000     0.309700000000     0.514200000000     0          
C4       C      0.882400000000     0.329800000000     0.525500000000     0          
C3       C      0.868100000000     0.300750000000     0.588800000000     0          
C2       C      0.883950000000     0.320050000000     0.599600000000     0          
C4       C      0.862300000000     0.296350000000     0.546900000000     0          
C1       C      0.891600000000     0.324800000000     0.646000000000     0          
C1       C      0.837650000000     0.207800000000     0.317400000000     0          
C1       C      0.626550000000     0.462300000000     0.307200000000     0          
C4       C      0.520500000000     0.464100000000     0.214200000000     0          
C3       C      0.531700000000     0.453150000000     0.214200000000     0          
C4       C      0.653300000000     0.376300000000     0.264600000000     0          
C3       C      0.642500000000     0.386300000000     0.264400000000     0          
C3       C      0.889800000000     0.333800000000     0.570900000000     0          
Zn1      Zn     0.640600000000     0.329650000000     0.777900000000     0          
Zn1      Zn     0.922000000000     0.352000000000     0.801700000000     0          
Zn1      Zn     0.887700000000     0.316850000000     0.739800000000     0          
O2       O      0.619400000000     0.433600000000     0.178600000000     0          
O2       O      0.589800000000     0.430550000000     0.148900000000     0          
O2       O      0.683100000000     0.380750000000     0.800700000000     0          
O2       O      0.644100000000     0.353000000000     0.810200000000     0          
O2       O      0.869850000000     0.323650000000     0.775700000000     0          
O2       O      0.894300000000     0.347650000000     0.818500000000     0          
O2       O      0.940700000000     0.380200000000     0.787900000000     0          
O2       O      0.878550000000     0.287750000000     0.753600000000     0          
C6       C      0.640000000000     0.445800000000     0.966500000000     0          
C7       C      0.644050000000     0.431600000000     0.946400000000     0          
C6       C      0.651000000000     0.433550000000     0.902000000000     0          
C7       C      0.654600000000     0.451200000000     0.879400000000     0          
C6       C      0.650600000000     0.465650000000     0.898200000000     0          
C7       C      0.642850000000     0.462500000000     0.941100000000     0          
C5       C      0.654100000000     0.417400000000     0.881500000000     0          
C4       C      0.643700000000     0.397750000000     0.893000000000     0          
C3       C      0.647600000000     0.383800000000     0.872000000000     0          
C2       C      0.659850000000     0.387750000000     0.839200000000     0          
C3       C      0.671100000000     0.407500000000     0.829700000000     0          
C4       C      0.667600000000     0.421750000000     0.850700000000     0          
C5       C      0.654600000000     0.484600000000     0.875800000000     0          
C4       C      0.667600000000     0.493750000000     0.843500000000     0          
C3       C      0.840850000000     0.329200000000     0.820100000000     0          
C2       C      0.858900000000     0.338750000000     0.829500000000     0          
C3       C      0.864350000000     0.350750000000     0.863500000000     0          
C4       C      0.646050000000     0.496000000000     0.886300000000     0          
C5       C      0.632950000000     0.442650000000     0.014200000000     0          
C4       C      0.617600000000     0.447400000000     0.025500000000     0          
C3       C      0.631900000000     0.432650000000     0.088800000000     0          
C2       C      0.616050000000     0.436100000000     0.099600000000     0          
C4       C      0.637700000000     0.434050000000     0.046900000000     0          
C1       C      0.608400000000     0.433200000000     0.146000000000     0          
C1       C      0.662350000000     0.370150000000     0.817400000000     0          
C1       C      0.873450000000     0.335750000000     0.807200000000     0          
C4       C      0.979500000000     0.443600000000     0.714200000000     0          
C3       C      0.968300000000     0.421450000000     0.714200000000     0          
C4       C      0.846700000000     0.223000000000     0.764600000000     0          
C3       C      0.857500000000     0.243800000000     0.764400000000     0          
C3       C      0.610200000000     0.444000000000     0.070900000000     0          
Zn1      Zn     0.930000000000     0.352000000000     0.698300000000     0          
Zn1      Zn     0.929150000000     0.316850000000     0.760200000000     0          
O2       O      0.566400000000     0.380600000000     0.321400000000     0          
O2       O      0.569450000000     0.410200000000     0.351100000000     0          
O2       O      0.626550000000     0.333850000000     0.727000000000     0          
O2       O      0.644200000000     0.336650000000     0.665300000000     0          
O2       O      0.953800000000     0.323650000000     0.724300000000     0          
O2       O      0.953350000000     0.347650000000     0.681500000000     0          
O2       O      0.939500000000     0.380200000000     0.712100000000     0          
O2       O      0.909200000000     0.287750000000     0.746400000000     0          
C6       C      0.554200000000     0.360000000000     0.533500000000     0          
C7       C      0.568400000000     0.355950000000     0.553600000000     0          
C6       C      0.566450000000     0.349000000000     0.598000000000     0          
C7       C      0.548800000000     0.345400000000     0.620600000000     0          
C6       C      0.534350000000     0.349400000000     0.601800000000     0          
C7       C      0.537500000000     0.357150000000     0.558900000000     0          
C5       C      0.582600000000     0.345900000000     0.618500000000     0          
C4       C      0.602250000000     0.356300000000     0.607000000000     0          
C3       C      0.616200000000     0.352400000000     0.628000000000     0          
C2       C      0.612250000000     0.340150000000     0.660800000000     0          
C3       C      0.592500000000     0.328900000000     0.670300000000     0          
C4       C      0.578250000000     0.332400000000     0.649300000000     0          
C5       C      0.515400000000     0.345400000000     0.624200000000     0          
C4       C      0.506250000000     0.332400000000     0.656500000000     0          
C3       C      0.988350000000     0.329200000000     0.679900000000     0          
C2       C      0.979850000000     0.338750000000     0.670500000000     0          
C3       C      0.986400000000     0.350750000000     0.636500000000     0          
C4       C      0.504000000000     0.353950000000     0.613700000000     0          
C5       C      0.557350000000     0.367050000000     0.485800000000     0          
C4       C      0.552600000000     0.382400000000     0.474500000000     0          
C3       C      0.567350000000     0.368100000000     0.411200000000     0          
C2       C      0.563900000000     0.383950000000     0.400400000000     0          
C4       C      0.565950000000     0.362300000000     0.453100000000     0          
C1       C      0.566800000000     0.391600000000     0.354000000000     0          
C1       C      0.629850000000     0.337650000000     0.682600000000     0          
C1       C      0.962300000000     0.335750000000     0.692800000000     0          
C4       C      0.964100000000     0.443600000000     0.785800000000     0          
C3       C      0.953150000000     0.421450000000     0.785800000000     0          
C4       C      0.876300000000     0.223000000000     0.735400000000     0          
C3       C      0.886300000000     0.243800000000     0.735600000000     0          
C3       C      0.556000000000     0.389800000000     0.429100000000     0          
O1       O      0.583225000000     0.416775000000     0.250000000000     0          
C6       C      0.510825000000     0.489175000000     0.250000000000     0          
C5       C      0.522675000000     0.477325000000     0.250000000000     0          
C2       C      0.544400000000     0.455600000000     0.250000000000     0          
C1       C      0.555225000000     0.444775000000     0.250000000000     0          
C6       C      0.655975000000     0.344025000000     0.250000000000     0          
C5       C      0.643900000000     0.356100000000     0.250000000000     0          
C2       C      0.622525000000     0.377475000000     0.250000000000     0          
C1       C      0.610775000000     0.389225000000     0.250000000000     0          
O1       O      0.916775000000     0.333550000000     0.750000000000     0          
C6       C      0.989175000000     0.478350000000     0.750000000000     0          
C5       C      0.977325000000     0.454650000000     0.750000000000     0          
C2       C      0.955600000000     0.411200000000     0.750000000000     0          
C1       C      0.944775000000     0.389550000000     0.750000000000     0          
C6       C      0.844025000000     0.188050000000     0.750000000000     0          
C5       C      0.856100000000     0.212200000000     0.750000000000     0          
C2       C      0.877475000000     0.254950000000     0.750000000000     0          
C1       C      0.889225000000     0.278450000000     0.750000000000     0          
C7       C      0.989300000000     0.478600000000     0.250000000000     0          
C7       C      0.510700000000     0.489300000000     0.750000000000     0          
H3       H      0.917390000000     0.275560000000     0.034300000000     0          
H3       H      0.954075000000     0.292995000000     0.155930000000     0          
H3       H      0.974270000000     0.335495000000     0.044660000000     0          
H2       H      0.892430000000     0.260960000000     0.079550000000     0          
H1       H      0.866905000000     0.227355000000     0.116380000000     0          
H1       H      0.912945000000     0.228975000000     0.196340000000     0          
H2       H      0.938540000000     0.260835000000     0.160900000000     0          
H2       H      0.987385000000     0.309485000000     0.168640000000     0          
H1       H      0.518155000000     0.335525000000     0.208170000000     0          
H1       H      0.522275000000     0.381220000000     0.124670000000     0          
H2       H      0.991550000000     0.356420000000     0.083880000000     0          
H2       H      0.953795000000     0.342600000000     0.000800000000     0          
H1       H      0.928590000000     0.288555000000     0.884080000000     0          
H2       H      0.926800000000     0.278950000000     0.959710000000     0          
H2       H      0.537830000000     0.490245000000     0.314800000000     0          
H1       H      0.557390000000     0.469915000000     0.314980000000     0          
H2       H      0.615650000000     0.329880000000     0.223290000000     0          
H1       H      0.596940000000     0.349955000000     0.223260000000     0          
H1       H      0.948680000000     0.350305000000     0.918240000000     0          
H3       H      0.858170000000     0.275560000000     0.465700000000     0          
H3       H      0.838920000000     0.292995000000     0.344070000000     0          
H3       H      0.861225000000     0.335495000000     0.455340000000     0          
H2       H      0.868530000000     0.260960000000     0.420450000000     0          
H1       H      0.860450000000     0.227355000000     0.383620000000     0          
H1       H      0.816030000000     0.228975000000     0.303660000000     0          
H2       H      0.822295000000     0.260835000000     0.339100000000     0          
H2       H      0.822100000000     0.309485000000     0.331360000000     0          
H1       H      0.664475000000     0.481845000000     0.291830000000     0          
H1       H      0.618780000000     0.477725000000     0.375330000000     0          
H2       H      0.864870000000     0.356420000000     0.416120000000     0          
H2       H      0.888805000000     0.342600000000     0.499200000000     0          
H1       H      0.859965000000     0.288555000000     0.615920000000     0          
H2       H      0.852150000000     0.278950000000     0.540290000000     0          
H2       H      0.509755000000     0.462170000000     0.185200000000     0          
H1       H      0.530085000000     0.442610000000     0.185020000000     0          
H2       H      0.670120000000     0.384350000000     0.276710000000     0          
H1       H      0.650045000000     0.403060000000     0.276740000000     0          
H1       H      0.901625000000     0.350305000000     0.581760000000     0          
H3       H      0.641830000000     0.417390000000     0.965700000000     0          
H3       H      0.661080000000     0.454075000000     0.844070000000     0          
H3       H      0.638775000000     0.474270000000     0.955340000000     0          
H2       H      0.631470000000     0.392430000000     0.920450000000     0          
H1       H      0.639550000000     0.366905000000     0.883620000000     0          
H1       H      0.683970000000     0.412945000000     0.803660000000     0          
H2       H      0.677705000000     0.438540000000     0.839100000000     0          
H2       H      0.677900000000     0.487385000000     0.831360000000     0          
H1       H      0.835525000000     0.317370000000     0.791830000000     0          
H1       H      0.881220000000     0.358945000000     0.875330000000     0          
H2       H      0.635130000000     0.491550000000     0.916120000000     0          
H2       H      0.611195000000     0.453795000000     0.999200000000     0          
H1       H      0.640035000000     0.428590000000     0.115920000000     0          
H2       H      0.647850000000     0.426800000000     0.040290000000     0          
H2       H      0.990245000000     0.452415000000     0.685200000000     0          
H1       H      0.969915000000     0.412525000000     0.685020000000     0          
H2       H      0.829880000000     0.214230000000     0.776710000000     0          
H1       H      0.849955000000     0.253015000000     0.776740000000     0          
H1       H      0.598375000000     0.448680000000     0.081760000000     0          
H3       H      0.582610000000     0.358170000000     0.534300000000     0          
H3       H      0.545925000000     0.338920000000     0.655930000000     0          
H3       H      0.525730000000     0.361225000000     0.544660000000     0          
H2       H      0.607570000000     0.368530000000     0.579550000000     0          
H1       H      0.633095000000     0.360450000000     0.616380000000     0          
H1       H      0.587055000000     0.316030000000     0.696340000000     0          
H2       H      0.561460000000     0.322295000000     0.660900000000     0          
H2       H      0.512615000000     0.322100000000     0.668640000000     0          
H1       H      0.981845000000     0.317370000000     0.708170000000     0          
H1       H      0.977725000000     0.358945000000     0.624670000000     0          
H2       H      0.508450000000     0.364870000000     0.583880000000     0          
H2       H      0.546205000000     0.388805000000     0.500800000000     0          
H1       H      0.571410000000     0.359965000000     0.384080000000     0          
H2       H      0.573200000000     0.352150000000     0.459710000000     0          
H2       H      0.962170000000     0.452415000000     0.814800000000     0          
H1       H      0.942610000000     0.412525000000     0.814980000000     0          
H2       H      0.884350000000     0.214230000000     0.723290000000     0          
H1       H      0.903060000000     0.253015000000     0.723260000000     0          
H1       H      0.551320000000     0.401625000000     0.418240000000     0          
H3       H      0.980265000000     0.460845000000     0.250000000000     0          
H3       H      0.519420000000     0.480265000000     0.750000000000     0          
H3       H      0.686175000000     0.372950000000     0.250000000000     0          
H3       H      0.872950000000     0.186775000000     0.750000000000     0          
Zn1      Zn     0.578000000000     0.648000000000     0.198300000000     0          
Zn1      Zn     0.612300000000     0.683150000000     0.260200000000     0          
O2       O      0.685800000000     0.619400000000     0.821400000000     0          
O2       O      0.659250000000     0.589800000000     0.851100000000     0          
O2       O      0.792700000000     0.666150000000     0.227000000000     0          
O2       O      0.807550000000     0.663350000000     0.165300000000     0          
O2       O      0.630150000000     0.676350000000     0.224300000000     0          
O2       O      0.605700000000     0.652350000000     0.181500000000     0          
O2       O      0.559300000000     0.619800000000     0.212100000000     0          
O2       O      0.621450000000     0.712250000000     0.246400000000     0          
C6       C      0.694200000000     0.640000000000     0.033500000000     0          
C7       C      0.712450000000     0.644050000000     0.053600000000     0          
C6       C      0.717450000000     0.651000000000     0.098000000000     0          
C7       C      0.703400000000     0.654600000000     0.120600000000     0          
C6       C      0.684950000000     0.650600000000     0.101800000000     0          
C7       C      0.680350000000     0.642850000000     0.058900000000     0          
C5       C      0.736700000000     0.654100000000     0.118500000000     0          
C4       C      0.745950000000     0.643700000000     0.107000000000     0          
C3       C      0.763800000000     0.647600000000     0.128000000000     0          
C2       C      0.772100000000     0.659850000000     0.160800000000     0          
C3       C      0.763600000000     0.671100000000     0.170300000000     0          
C4       C      0.745850000000     0.667600000000     0.149300000000     0          
C5       C      0.670000000000     0.654600000000     0.124200000000     0          
C4       C      0.673850000000     0.667600000000     0.156500000000     0          
C3       C      0.659150000000     0.670800000000     0.179900000000     0          
C2       C      0.641100000000     0.661250000000     0.170500000000     0          
C3       C      0.635650000000     0.649250000000     0.136500000000     0          
C4       C      0.650050000000     0.646050000000     0.113700000000     0          
C5       C      0.690300000000     0.632950000000     0.985800000000     0          
C4       C      0.670200000000     0.617600000000     0.974500000000     0          
C3       C      0.699250000000     0.631900000000     0.911200000000     0          
C2       C      0.679950000000     0.616050000000     0.900400000000     0          
C4       C      0.703650000000     0.637700000000     0.953100000000     0          
C1       C      0.675200000000     0.608400000000     0.854000000000     0          
C1       C      0.792200000000     0.662350000000     0.182600000000     0          
C1       C      0.626550000000     0.664250000000     0.192800000000     0          
C4       C      0.520500000000     0.556400000000     0.285800000000     0          
C3       C      0.531700000000     0.578550000000     0.285800000000     0          
C4       C      0.653300000000     0.777000000000     0.235400000000     0          
C3       C      0.642500000000     0.756200000000     0.235600000000     0          
C3       C      0.666200000000     0.610200000000     0.929100000000     0          
Zn1      Zn     0.810950000000     0.670350000000     0.277900000000     0          
Zn1      Zn     0.570000000000     0.648000000000     0.301700000000     0          
Zn1      Zn     0.570850000000     0.683150000000     0.239800000000     0          
O2       O      0.685800000000     0.566400000000     0.678600000000     0          
O2       O      0.659250000000     0.569450000000     0.648900000000     0          
O2       O      0.802350000000     0.619250000000     0.300700000000     0          
O2       O      0.791100000000     0.647000000000     0.310200000000     0          
O2       O      0.546200000000     0.676350000000     0.275700000000     0          
O2       O      0.546650000000     0.652350000000     0.318500000000     0          
O2       O      0.560500000000     0.619800000000     0.287900000000     0          
O2       O      0.590800000000     0.712250000000     0.253600000000     0          
C6       C      0.694200000000     0.554200000000     0.466500000000     0          
C7       C      0.712450000000     0.568400000000     0.446400000000     0          
C6       C      0.717450000000     0.566450000000     0.402000000000     0          
C7       C      0.703400000000     0.548800000000     0.379400000000     0          
C6       C      0.684950000000     0.534350000000     0.398200000000     0          
C7       C      0.680350000000     0.537500000000     0.441100000000     0          
C5       C      0.736700000000     0.582600000000     0.381500000000     0          
C4       C      0.745950000000     0.602250000000     0.393000000000     0          
C3       C      0.763800000000     0.616200000000     0.372000000000     0          
C2       C      0.772100000000     0.612250000000     0.339200000000     0          
C3       C      0.763600000000     0.592500000000     0.329700000000     0          
C4       C      0.745850000000     0.578250000000     0.350700000000     0          
C5       C      0.670000000000     0.515400000000     0.375800000000     0          
C4       C      0.673850000000     0.506250000000     0.343500000000     0          
C3       C      0.511650000000     0.670800000000     0.320100000000     0          
C2       C      0.520150000000     0.661250000000     0.329500000000     0          
C3       C      0.513600000000     0.649250000000     0.363500000000     0          
C4       C      0.650050000000     0.504000000000     0.386300000000     0          
C5       C      0.690300000000     0.557350000000     0.514200000000     0          
C4       C      0.670200000000     0.552600000000     0.525500000000     0          
C3       C      0.699250000000     0.567350000000     0.588800000000     0          
C2       C      0.679950000000     0.563900000000     0.599600000000     0          
C4       C      0.703650000000     0.565950000000     0.546900000000     0          
C1       C      0.675200000000     0.566800000000     0.646000000000     0          
C1       C      0.792200000000     0.629850000000     0.317400000000     0          
C1       C      0.537700000000     0.664250000000     0.307200000000     0          
C4       C      0.535900000000     0.556400000000     0.214200000000     0          
C3       C      0.546850000000     0.578550000000     0.214200000000     0          
C4       C      0.623700000000     0.777000000000     0.264600000000     0          
C3       C      0.613700000000     0.756200000000     0.264400000000     0          
C3       C      0.666200000000     0.556000000000     0.570900000000     0          
Zn1      Zn     0.670350000000     0.810950000000     0.777900000000     0          
Zn1      Zn     0.648000000000     0.570000000000     0.801700000000     0          
Zn1      Zn     0.683150000000     0.570850000000     0.739800000000     0          
O2       O      0.566400000000     0.685800000000     0.178600000000     0          
O2       O      0.569450000000     0.659250000000     0.148900000000     0          
O2       O      0.619250000000     0.802350000000     0.800700000000     0          
O2       O      0.647000000000     0.791100000000     0.810200000000     0          
O2       O      0.676350000000     0.546200000000     0.775700000000     0          
O2       O      0.652350000000     0.546650000000     0.818500000000     0          
O2       O      0.619800000000     0.560500000000     0.787900000000     0          
O2       O      0.712250000000     0.590800000000     0.753600000000     0          
C6       C      0.554200000000     0.694200000000     0.966500000000     0          
C7       C      0.568400000000     0.712450000000     0.946400000000     0          
C6       C      0.566450000000     0.717450000000     0.902000000000     0          
C7       C      0.548800000000     0.703400000000     0.879400000000     0          
C6       C      0.534350000000     0.684950000000     0.898200000000     0          
C7       C      0.537500000000     0.680350000000     0.941100000000     0          
C5       C      0.582600000000     0.736700000000     0.881500000000     0          
C4       C      0.602250000000     0.745950000000     0.893000000000     0          
C3       C      0.616200000000     0.763800000000     0.872000000000     0          
C2       C      0.612250000000     0.772100000000     0.839200000000     0          
C3       C      0.592500000000     0.763600000000     0.829700000000     0          
C4       C      0.578250000000     0.745850000000     0.850700000000     0          
C5       C      0.515400000000     0.670000000000     0.875800000000     0          
C4       C      0.506250000000     0.673850000000     0.843500000000     0          
C3       C      0.670800000000     0.511650000000     0.820100000000     0          
C2       C      0.661250000000     0.520150000000     0.829500000000     0          
C3       C      0.649250000000     0.513600000000     0.863500000000     0          
C4       C      0.504000000000     0.650050000000     0.886300000000     0          
C5       C      0.557350000000     0.690300000000     0.014200000000     0          
C4       C      0.552600000000     0.670200000000     0.025500000000     0          
C3       C      0.567350000000     0.699250000000     0.088800000000     0          
C2       C      0.563900000000     0.679950000000     0.099600000000     0          
C4       C      0.565950000000     0.703650000000     0.046900000000     0          
C1       C      0.566800000000     0.675200000000     0.146000000000     0          
C1       C      0.629850000000     0.792200000000     0.817400000000     0          
C1       C      0.664250000000     0.537700000000     0.807200000000     0          
C4       C      0.556400000000     0.535900000000     0.714200000000     0          
C3       C      0.578550000000     0.546850000000     0.714200000000     0          
C4       C      0.777000000000     0.623700000000     0.764600000000     0          
C3       C      0.756200000000     0.613700000000     0.764400000000     0          
C3       C      0.556000000000     0.666200000000     0.070900000000     0          
Zn1      Zn     0.648000000000     0.578000000000     0.698300000000     0          
Zn1      Zn     0.683150000000     0.612300000000     0.760200000000     0          
O2       O      0.619400000000     0.685800000000     0.321400000000     0          
O2       O      0.589800000000     0.659250000000     0.351100000000     0          
O2       O      0.666150000000     0.792700000000     0.727000000000     0          
O2       O      0.663350000000     0.807550000000     0.665300000000     0          
O2       O      0.676350000000     0.630150000000     0.724300000000     0          
O2       O      0.652350000000     0.605700000000     0.681500000000     0          
O2       O      0.619800000000     0.559300000000     0.712100000000     0          
O2       O      0.712250000000     0.621450000000     0.746400000000     0          
C6       C      0.640000000000     0.694200000000     0.533500000000     0          
C7       C      0.644050000000     0.712450000000     0.553600000000     0          
C6       C      0.651000000000     0.717450000000     0.598000000000     0          
C7       C      0.654600000000     0.703400000000     0.620600000000     0          
C6       C      0.650600000000     0.684950000000     0.601800000000     0          
C7       C      0.642850000000     0.680350000000     0.558900000000     0          
C5       C      0.654100000000     0.736700000000     0.618500000000     0          
C4       C      0.643700000000     0.745950000000     0.607000000000     0          
C3       C      0.647600000000     0.763800000000     0.628000000000     0          
C2       C      0.659850000000     0.772100000000     0.660800000000     0          
C3       C      0.671100000000     0.763600000000     0.670300000000     0          
C4       C      0.667600000000     0.745850000000     0.649300000000     0          
C5       C      0.654600000000     0.670000000000     0.624200000000     0          
C4       C      0.667600000000     0.673850000000     0.656500000000     0          
C3       C      0.670800000000     0.659150000000     0.679900000000     0          
C2       C      0.661250000000     0.641100000000     0.670500000000     0          
C3       C      0.649250000000     0.635650000000     0.636500000000     0          
C4       C      0.646050000000     0.650050000000     0.613700000000     0          
C5       C      0.632950000000     0.690300000000     0.485800000000     0          
C4       C      0.617600000000     0.670200000000     0.474500000000     0          
C3       C      0.631900000000     0.699250000000     0.411200000000     0          
C2       C      0.616050000000     0.679950000000     0.400400000000     0          
C4       C      0.637700000000     0.703650000000     0.453100000000     0          
C1       C      0.608400000000     0.675200000000     0.354000000000     0          
C1       C      0.662350000000     0.792200000000     0.682600000000     0          
C1       C      0.664250000000     0.626550000000     0.692800000000     0          
C4       C      0.556400000000     0.520500000000     0.785800000000     0          
C3       C      0.578550000000     0.531700000000     0.785800000000     0          
C4       C      0.777000000000     0.653300000000     0.735400000000     0          
C3       C      0.756200000000     0.642500000000     0.735600000000     0          
C3       C      0.610200000000     0.666200000000     0.429100000000     0          
Zn1      Zn     0.833330000000     0.666665000000     0.190400000000     0          
Zn1      Zn     0.666665000000     0.833330000000     0.690400000000     0          
O1       O      0.583225000000     0.666450000000     0.250000000000     0          
C6       C      0.510825000000     0.521650000000     0.250000000000     0          
C5       C      0.522675000000     0.545350000000     0.250000000000     0          
C2       C      0.544400000000     0.588800000000     0.250000000000     0          
C1       C      0.555225000000     0.610450000000     0.250000000000     0          
C6       C      0.655975000000     0.811950000000     0.250000000000     0          
C5       C      0.643900000000     0.787800000000     0.250000000000     0          
C2       C      0.622525000000     0.745050000000     0.250000000000     0          
C1       C      0.610775000000     0.721550000000     0.250000000000     0          
O1       O      0.666450000000     0.583225000000     0.750000000000     0          
C6       C      0.521650000000     0.510825000000     0.750000000000     0          
C5       C      0.545350000000     0.522675000000     0.750000000000     0          
C2       C      0.588800000000     0.544400000000     0.750000000000     0          
C1       C      0.610450000000     0.555225000000     0.750000000000     0          
C6       C      0.811950000000     0.655975000000     0.750000000000     0          
C5       C      0.787800000000     0.643900000000     0.750000000000     0          
C2       C      0.745050000000     0.622525000000     0.750000000000     0          
C1       C      0.721550000000     0.610775000000     0.750000000000     0          
O1       O      0.833330000000     0.666665000000     0.250000000000     0          
O1       O      0.666665000000     0.833330000000     0.750000000000     0          
C7       C      0.521400000000     0.510700000000     0.250000000000     0          
C7       C      0.510700000000     0.521400000000     0.750000000000     0          
C7       C      0.644800000000     0.822400000000     0.250000000000     0          
C7       C      0.677600000000     0.822400000000     0.250000000000     0          
C7       C      0.822400000000     0.644800000000     0.750000000000     0          
C7       C      0.822400000000     0.677600000000     0.750000000000     0          
H3       H      0.724440000000     0.641830000000     0.034300000000     0          
H3       H      0.707005000000     0.661080000000     0.155930000000     0          
H3       H      0.664505000000     0.638775000000     0.044660000000     0          
H2       H      0.739040000000     0.631470000000     0.079550000000     0          
H1       H      0.772645000000     0.639550000000     0.116380000000     0          
H1       H      0.771025000000     0.683970000000     0.196340000000     0          
H2       H      0.739165000000     0.677705000000     0.160900000000     0          
H2       H      0.690515000000     0.677900000000     0.168640000000     0          
H1       H      0.664475000000     0.682630000000     0.208170000000     0          
H1       H      0.618780000000     0.641055000000     0.124670000000     0          
H2       H      0.643580000000     0.635130000000     0.083880000000     0          
H2       H      0.657400000000     0.611195000000     0.000800000000     0          
H1       H      0.711445000000     0.640035000000     0.884080000000     0          
H2       H      0.721050000000     0.647850000000     0.959710000000     0          
H2       H      0.509755000000     0.547585000000     0.314800000000     0          
H1       H      0.530085000000     0.587475000000     0.314980000000     0          
H2       H      0.670120000000     0.785770000000     0.223290000000     0          
H1       H      0.650045000000     0.746985000000     0.223260000000     0          
H1       H      0.649695000000     0.598375000000     0.918240000000     0          
H3       H      0.724440000000     0.582610000000     0.465700000000     0          
H3       H      0.707005000000     0.545925000000     0.344070000000     0          
H3       H      0.664505000000     0.525730000000     0.455340000000     0          
H2       H      0.739040000000     0.607570000000     0.420450000000     0          
H1       H      0.772645000000     0.633095000000     0.383620000000     0          
H1       H      0.771025000000     0.587055000000     0.303660000000     0          
H2       H      0.739165000000     0.561460000000     0.339100000000     0          
H2       H      0.690515000000     0.512615000000     0.331360000000     0          
H1       H      0.518155000000     0.682630000000     0.291830000000     0          
H1       H      0.522275000000     0.641055000000     0.375330000000     0          
H2       H      0.643580000000     0.508450000000     0.416120000000     0          
H2       H      0.657400000000     0.546205000000     0.499200000000     0          
H1       H      0.711445000000     0.571410000000     0.615920000000     0          
H2       H      0.721050000000     0.573200000000     0.540290000000     0          
H2       H      0.537830000000     0.547585000000     0.185200000000     0          
H1       H      0.557390000000     0.587475000000     0.185020000000     0          
H2       H      0.615650000000     0.785770000000     0.276710000000     0          
H1       H      0.596940000000     0.746985000000     0.276740000000     0          
H1       H      0.649695000000     0.551320000000     0.581760000000     0          
H3       H      0.582610000000     0.724440000000     0.965700000000     0          
H3       H      0.545925000000     0.707005000000     0.844070000000     0          
H3       H      0.525730000000     0.664505000000     0.955340000000     0          
H2       H      0.607570000000     0.739040000000     0.920450000000     0          
H1       H      0.633095000000     0.772645000000     0.883620000000     0          
H1       H      0.587055000000     0.771025000000     0.803660000000     0          
H2       H      0.561460000000     0.739165000000     0.839100000000     0          
H2       H      0.512615000000     0.690515000000     0.831360000000     0          
H1       H      0.682630000000     0.518155000000     0.791830000000     0          
H1       H      0.641055000000     0.522275000000     0.875330000000     0          
H2       H      0.508450000000     0.643580000000     0.916120000000     0          
H2       H      0.546205000000     0.657400000000     0.999200000000     0          
H1       H      0.571410000000     0.711445000000     0.115920000000     0          
H2       H      0.573200000000     0.721050000000     0.040290000000     0          
H2       H      0.547585000000     0.537830000000     0.685200000000     0          
H1       H      0.587475000000     0.557390000000     0.685020000000     0          
H2       H      0.785770000000     0.615650000000     0.776710000000     0          
H1       H      0.746985000000     0.596940000000     0.776740000000     0          
H1       H      0.551320000000     0.649695000000     0.081760000000     0          
H3       H      0.641830000000     0.724440000000     0.534300000000     0          
H3       H      0.661080000000     0.707005000000     0.655930000000     0          
H3       H      0.638775000000     0.664505000000     0.544660000000     0          
H2       H      0.631470000000     0.739040000000     0.579550000000     0          
H1       H      0.639550000000     0.772645000000     0.616380000000     0          
H1       H      0.683970000000     0.771025000000     0.696340000000     0          
H2       H      0.677705000000     0.739165000000     0.660900000000     0          
H2       H      0.677900000000     0.690515000000     0.668640000000     0          
H1       H      0.682630000000     0.664475000000     0.708170000000     0          
H1       H      0.641055000000     0.618780000000     0.624670000000     0          
H2       H      0.635130000000     0.643580000000     0.583880000000     0          
H2       H      0.611195000000     0.657400000000     0.500800000000     0          
H1       H      0.640035000000     0.711445000000     0.384080000000     0          
H2       H      0.647850000000     0.721050000000     0.459710000000     0          
H2       H      0.547585000000     0.509755000000     0.814800000000     0          
H1       H      0.587475000000     0.530085000000     0.814980000000     0          
H2       H      0.785770000000     0.670120000000     0.723290000000     0          
H1       H      0.746985000000     0.650045000000     0.723260000000     0          
H1       H      0.598375000000     0.649695000000     0.418240000000     0          
H3       H      0.539155000000     0.519420000000     0.250000000000     0          
H3       H      0.519735000000     0.539155000000     0.750000000000     0          
H3       H      0.627050000000     0.813225000000     0.250000000000     0          
H3       H      0.813225000000     0.686175000000     0.750000000000     0          
Zn1      Zn     0.852000000000     0.930000000000     0.198300000000     0          
Zn1      Zn     0.816850000000     0.929150000000     0.260200000000     0          
O2       O      0.880600000000     0.566400000000     0.821400000000     0          
O2       O      0.910200000000     0.569450000000     0.851100000000     0          
O2       O      0.833850000000     0.626550000000     0.227000000000     0          
O2       O      0.836650000000     0.644200000000     0.165300000000     0          
O2       O      0.823650000000     0.953800000000     0.224300000000     0          
O2       O      0.847650000000     0.953350000000     0.181500000000     0          
O2       O      0.880200000000     0.939500000000     0.212100000000     0          
O2       O      0.787750000000     0.909200000000     0.246400000000     0          
C6       C      0.860000000000     0.554200000000     0.033500000000     0          
C7       C      0.855950000000     0.568400000000     0.053600000000     0          
C6       C      0.849000000000     0.566450000000     0.098000000000     0          
C7       C      0.845400000000     0.548800000000     0.120600000000     0          
C6       C      0.849400000000     0.534350000000     0.101800000000     0          
C7       C      0.857150000000     0.537500000000     0.058900000000     0          
C5       C      0.845900000000     0.582600000000     0.118500000000     0          
C4       C      0.856300000000     0.602250000000     0.107000000000     0          
C3       C      0.852400000000     0.616200000000     0.128000000000     0          
C2       C      0.840150000000     0.612250000000     0.160800000000     0          
C3       C      0.828900000000     0.592500000000     0.170300000000     0          
C4       C      0.832400000000     0.578250000000     0.149300000000     0          
C5       C      0.845400000000     0.515400000000     0.124200000000     0          
C4       C      0.832400000000     0.506250000000     0.156500000000     0          
C3       C      0.829200000000     0.988350000000     0.179900000000     0          
C2       C      0.838750000000     0.979850000000     0.170500000000     0          
C3       C      0.850750000000     0.986400000000     0.136500000000     0          
C4       C      0.853950000000     0.504000000000     0.113700000000     0          
C5       C      0.867050000000     0.557350000000     0.985800000000     0          
C4       C      0.882400000000     0.552600000000     0.974500000000     0          
C3       C      0.868100000000     0.567350000000     0.911200000000     0          
C2       C      0.883950000000     0.563900000000     0.900400000000     0          
C4       C      0.862300000000     0.565950000000     0.953100000000     0          
C1       C      0.891600000000     0.566800000000     0.854000000000     0          
C1       C      0.837650000000     0.629850000000     0.182600000000     0          
C1       C      0.835750000000     0.962300000000     0.192800000000     0          
C4       C      0.943600000000     0.964100000000     0.285800000000     0          
C3       C      0.921450000000     0.953150000000     0.285800000000     0          
C4       C      0.723000000000     0.876300000000     0.235400000000     0          
C3       C      0.743800000000     0.886300000000     0.235600000000     0          
C3       C      0.889800000000     0.556000000000     0.929100000000     0          
Zn1      Zn     0.829650000000     0.640600000000     0.277900000000     0          
Zn1      Zn     0.852000000000     0.922000000000     0.301700000000     0          
Zn1      Zn     0.816850000000     0.887700000000     0.239800000000     0          
O2       O      0.933600000000     0.619400000000     0.678600000000     0          
O2       O      0.930550000000     0.589800000000     0.648900000000     0          
O2       O      0.880750000000     0.683100000000     0.300700000000     0          
O2       O      0.853000000000     0.644100000000     0.310200000000     0          
O2       O      0.823650000000     0.869850000000     0.275700000000     0          
O2       O      0.847650000000     0.894300000000     0.318500000000     0          
O2       O      0.880200000000     0.940700000000     0.287900000000     0          
O2       O      0.787750000000     0.878550000000     0.253600000000     0          
C6       C      0.945800000000     0.640000000000     0.466500000000     0          
C7       C      0.931600000000     0.644050000000     0.446400000000     0          
C6       C      0.933550000000     0.651000000000     0.402000000000     0          
C7       C      0.951200000000     0.654600000000     0.379400000000     0          
C6       C      0.965650000000     0.650600000000     0.398200000000     0          
C7       C      0.962500000000     0.642850000000     0.441100000000     0          
C5       C      0.917400000000     0.654100000000     0.381500000000     0          
C4       C      0.897750000000     0.643700000000     0.393000000000     0          
C3       C      0.883800000000     0.647600000000     0.372000000000     0          
C2       C      0.887750000000     0.659850000000     0.339200000000     0          
C3       C      0.907500000000     0.671100000000     0.329700000000     0          
C4       C      0.921750000000     0.667600000000     0.350700000000     0          
C5       C      0.984600000000     0.654600000000     0.375800000000     0          
C4       C      0.993750000000     0.667600000000     0.343500000000     0          
C3       C      0.829200000000     0.840850000000     0.320100000000     0          
C2       C      0.838750000000     0.858900000000     0.329500000000     0          
C3       C      0.850750000000     0.864350000000     0.363500000000     0          
C4       C      0.996000000000     0.646050000000     0.386300000000     0          
C5       C      0.942650000000     0.632950000000     0.514200000000     0          
C4       C      0.947400000000     0.617600000000     0.525500000000     0          
C3       C      0.932650000000     0.631900000000     0.588800000000     0          
C2       C      0.936100000000     0.616050000000     0.599600000000     0          
C4       C      0.934050000000     0.637700000000     0.546900000000     0          
C1       C      0.933200000000     0.608400000000     0.646000000000     0          
C1       C      0.870150000000     0.662350000000     0.317400000000     0          
C1       C      0.835750000000     0.873450000000     0.307200000000     0          
C4       C      0.943600000000     0.979500000000     0.214200000000     0          
C3       C      0.921450000000     0.968300000000     0.214200000000     0          
C4       C      0.723000000000     0.846700000000     0.264600000000     0          
C3       C      0.743800000000     0.857500000000     0.264400000000     0          
C3       C      0.944000000000     0.610200000000     0.570900000000     0          
Zn1      Zn     0.689050000000     0.859400000000     0.777900000000     0          
Zn1      Zn     0.930000000000     0.578000000000     0.801700000000     0          
Zn1      Zn     0.929150000000     0.612300000000     0.739800000000     0          
O2       O      0.814200000000     0.880600000000     0.178600000000     0          
O2       O      0.840750000000     0.910200000000     0.148900000000     0          
O2       O      0.697650000000     0.816900000000     0.800700000000     0          
O2       O      0.708900000000     0.855900000000     0.810200000000     0          
O2       O      0.953800000000     0.630150000000     0.775700000000     0          
O2       O      0.953350000000     0.605700000000     0.818500000000     0          
O2       O      0.939500000000     0.559300000000     0.787900000000     0          
O2       O      0.909200000000     0.621450000000     0.753600000000     0          
C6       C      0.805800000000     0.860000000000     0.966500000000     0          
C7       C      0.787550000000     0.855950000000     0.946400000000     0          
C6       C      0.782550000000     0.849000000000     0.902000000000     0          
C7       C      0.796600000000     0.845400000000     0.879400000000     0          
C6       C      0.815050000000     0.849400000000     0.898200000000     0          
C7       C      0.819650000000     0.857150000000     0.941100000000     0          
C5       C      0.763300000000     0.845900000000     0.881500000000     0          
C4       C      0.754050000000     0.856300000000     0.893000000000     0          
C3       C      0.736200000000     0.852400000000     0.872000000000     0          
C2       C      0.727900000000     0.840150000000     0.839200000000     0          
C3       C      0.736400000000     0.828900000000     0.829700000000     0          
C4       C      0.754150000000     0.832400000000     0.850700000000     0          
C5       C      0.830000000000     0.845400000000     0.875800000000     0          
C4       C      0.826150000000     0.832400000000     0.843500000000     0          
C3       C      0.988350000000     0.659150000000     0.820100000000     0          
C2       C      0.979850000000     0.641100000000     0.829500000000     0          
C3       C      0.986400000000     0.635650000000     0.863500000000     0          
C4       C      0.849950000000     0.853950000000     0.886300000000     0          
C5       C      0.809700000000     0.867050000000     0.014200000000     0          
C4       C      0.829800000000     0.882400000000     0.025500000000     0          
C3       C      0.800750000000     0.868100000000     0.088800000000     0          
C2       C      0.820050000000     0.883950000000     0.099600000000     0          
C4       C      0.796350000000     0.862300000000     0.046900000000     0          
C1       C      0.824800000000     0.891600000000     0.146000000000     0          
C1       C      0.707800000000     0.837650000000     0.817400000000     0          
C1       C      0.962300000000     0.626550000000     0.807200000000     0          
C4       C      0.964100000000     0.520500000000     0.714200000000     0          
C3       C      0.953150000000     0.531700000000     0.714200000000     0          
C4       C      0.876300000000     0.653300000000     0.764600000000     0          
C3       C      0.886300000000     0.642500000000     0.764400000000     0          
C3       C      0.833800000000     0.889800000000     0.070900000000     0          
Zn1      Zn     0.922000000000     0.570000000000     0.698300000000     0          
Zn1      Zn     0.887700000000     0.570850000000     0.760200000000     0          
O2       O      0.814200000000     0.933600000000     0.321400000000     0          
O2       O      0.840750000000     0.930550000000     0.351100000000     0          
O2       O      0.707300000000     0.873450000000     0.727000000000     0          
O2       O      0.692450000000     0.855800000000     0.665300000000     0          
O2       O      0.869850000000     0.546200000000     0.724300000000     0          
O2       O      0.894300000000     0.546650000000     0.681500000000     0          
O2       O      0.940700000000     0.560500000000     0.712100000000     0          
O2       O      0.878550000000     0.590800000000     0.746400000000     0          
C6       C      0.805800000000     0.945800000000     0.533500000000     0          
C7       C      0.787550000000     0.931600000000     0.553600000000     0          
C6       C      0.782550000000     0.933550000000     0.598000000000     0          
C7       C      0.796600000000     0.951200000000     0.620600000000     0          
C6       C      0.815050000000     0.965650000000     0.601800000000     0          
C7       C      0.819650000000     0.962500000000     0.558900000000     0          
C5       C      0.763300000000     0.917400000000     0.618500000000     0          
C4       C      0.754050000000     0.897750000000     0.607000000000     0          
C3       C      0.736200000000     0.883800000000     0.628000000000     0          
C2       C      0.727900000000     0.887750000000     0.660800000000     0          
C3       C      0.736400000000     0.907500000000     0.670300000000     0          
C4       C      0.754150000000     0.921750000000     0.649300000000     0          
C5       C      0.830000000000     0.984600000000     0.624200000000     0          
C4       C      0.826150000000     0.993750000000     0.656500000000     0          
C3       C      0.840850000000     0.511650000000     0.679900000000     0          
C2       C      0.858900000000     0.520150000000     0.670500000000     0          
C3       C      0.864350000000     0.513600000000     0.636500000000     0          
C4       C      0.849950000000     0.996000000000     0.613700000000     0          
C5       C      0.809700000000     0.942650000000     0.485800000000     0          
C4       C      0.829800000000     0.947400000000     0.474500000000     0          
C3       C      0.800750000000     0.932650000000     0.411200000000     0          
C2       C      0.820050000000     0.936100000000     0.400400000000     0          
C4       C      0.796350000000     0.934050000000     0.453100000000     0          
C1       C      0.824800000000     0.933200000000     0.354000000000     0          
C1       C      0.707800000000     0.870150000000     0.682600000000     0          
C1       C      0.873450000000     0.537700000000     0.692800000000     0          
C4       C      0.979500000000     0.535900000000     0.785800000000     0          
C3       C      0.968300000000     0.546850000000     0.785800000000     0          
C4       C      0.846700000000     0.623700000000     0.735400000000     0          
C3       C      0.857500000000     0.613700000000     0.735600000000     0          
C3       C      0.833800000000     0.944000000000     0.429100000000     0          
O1       O      0.833550000000     0.916775000000     0.250000000000     0          
C6       C      0.978350000000     0.989175000000     0.250000000000     0          
C5       C      0.954650000000     0.977325000000     0.250000000000     0          
C2       C      0.911200000000     0.955600000000     0.250000000000     0          
C1       C      0.889550000000     0.944775000000     0.250000000000     0          
C6       C      0.688050000000     0.844025000000     0.250000000000     0          
C5       C      0.712200000000     0.856100000000     0.250000000000     0          
C2       C      0.754950000000     0.877475000000     0.250000000000     0          
C1       C      0.778450000000     0.889225000000     0.250000000000     0          
O1       O      0.916775000000     0.583225000000     0.750000000000     0          
C6       C      0.989175000000     0.510825000000     0.750000000000     0          
C5       C      0.977325000000     0.522675000000     0.750000000000     0          
C2       C      0.955600000000     0.544400000000     0.750000000000     0          
C1       C      0.944775000000     0.555225000000     0.750000000000     0          
C6       C      0.844025000000     0.655975000000     0.750000000000     0          
C5       C      0.856100000000     0.643900000000     0.750000000000     0          
C2       C      0.877475000000     0.622525000000     0.750000000000     0          
C1       C      0.889225000000     0.610775000000     0.750000000000     0          
C7       C      0.989300000000     0.510700000000     0.250000000000     0          
C7       C      0.978600000000     0.989300000000     0.750000000000     0          
C7       C      0.677600000000     0.855200000000     0.250000000000     0          
C7       C      0.855200000000     0.677600000000     0.750000000000     0          
H3       H      0.858170000000     0.582610000000     0.034300000000     0          
H3       H      0.838920000000     0.545925000000     0.155930000000     0          
H3       H      0.861225000000     0.525730000000     0.044660000000     0          
H2       H      0.868530000000     0.607570000000     0.079550000000     0          
H1       H      0.860450000000     0.633095000000     0.116380000000     0          
H1       H      0.816030000000     0.587055000000     0.196340000000     0          
H2       H      0.822295000000     0.561460000000     0.160900000000     0          
H2       H      0.822100000000     0.512615000000     0.168640000000     0          
H1       H      0.817370000000     0.981845000000     0.208170000000     0          
H1       H      0.858945000000     0.977725000000     0.124670000000     0          
H2       H      0.864870000000     0.508450000000     0.083880000000     0          
H2       H      0.888805000000     0.546205000000     0.000800000000     0          
H1       H      0.859965000000     0.571410000000     0.884080000000     0          
H2       H      0.852150000000     0.573200000000     0.959710000000     0          
H2       H      0.952415000000     0.962170000000     0.314800000000     0          
H1       H      0.912525000000     0.942610000000     0.314980000000     0          
H2       H      0.714230000000     0.884350000000     0.223290000000     0          
H1       H      0.753015000000     0.903060000000     0.223260000000     0          
H1       H      0.901625000000     0.551320000000     0.918240000000     0          
H3       H      0.917390000000     0.641830000000     0.465700000000     0          
H3       H      0.954075000000     0.661080000000     0.344070000000     0          
H3       H      0.974270000000     0.638775000000     0.455340000000     0          
H2       H      0.892430000000     0.631470000000     0.420450000000     0          
H1       H      0.866905000000     0.639550000000     0.383620000000     0          
H1       H      0.912945000000     0.683970000000     0.303660000000     0          
H2       H      0.938540000000     0.677705000000     0.339100000000     0          
H2       H      0.987385000000     0.677900000000     0.331360000000     0          
H1       H      0.817370000000     0.835525000000     0.291830000000     0          
H1       H      0.858945000000     0.881220000000     0.375330000000     0          
H2       H      0.991550000000     0.635130000000     0.416120000000     0          
H2       H      0.953795000000     0.611195000000     0.499200000000     0          
H1       H      0.928590000000     0.640035000000     0.615920000000     0          
H2       H      0.926800000000     0.647850000000     0.540290000000     0          
H2       H      0.952415000000     0.990245000000     0.185200000000     0          
H1       H      0.912525000000     0.969915000000     0.185020000000     0          
H2       H      0.714230000000     0.829880000000     0.276710000000     0          
H1       H      0.753015000000     0.849955000000     0.276740000000     0          
H1       H      0.948680000000     0.598375000000     0.581760000000     0          
H3       H      0.775560000000     0.858170000000     0.965700000000     0          
H3       H      0.792995000000     0.838920000000     0.844070000000     0          
H3       H      0.835495000000     0.861225000000     0.955340000000     0          
H2       H      0.760960000000     0.868530000000     0.920450000000     0          
H1       H      0.727355000000     0.860450000000     0.883620000000     0          
H1       H      0.728975000000     0.816030000000     0.803660000000     0          
H2       H      0.760835000000     0.822295000000     0.839100000000     0          
H2       H      0.809485000000     0.822100000000     0.831360000000     0          
H1       H      0.981845000000     0.664475000000     0.791830000000     0          
H1       H      0.977725000000     0.618780000000     0.875330000000     0          
H2       H      0.856420000000     0.864870000000     0.916120000000     0          
H2       H      0.842600000000     0.888805000000     0.999200000000     0          
H1       H      0.788555000000     0.859965000000     0.115920000000     0          
H2       H      0.778950000000     0.852150000000     0.040290000000     0          
H2       H      0.962170000000     0.509755000000     0.685200000000     0          
H1       H      0.942610000000     0.530085000000     0.685020000000     0          
H2       H      0.884350000000     0.670120000000     0.776710000000     0          
H1       H      0.903060000000     0.650045000000     0.776740000000     0          
H1       H      0.850305000000     0.901625000000     0.081760000000     0          
H3       H      0.775560000000     0.917390000000     0.534300000000     0          
H3       H      0.792995000000     0.954075000000     0.655930000000     0          
H3       H      0.835495000000     0.974270000000     0.544660000000     0          
H2       H      0.760960000000     0.892430000000     0.579550000000     0          
H1       H      0.727355000000     0.866905000000     0.616380000000     0          
H1       H      0.728975000000     0.912945000000     0.696340000000     0          
H2       H      0.760835000000     0.938540000000     0.660900000000     0          
H2       H      0.809485000000     0.987385000000     0.668640000000     0          
H1       H      0.835525000000     0.518155000000     0.708170000000     0          
H1       H      0.881220000000     0.522275000000     0.624670000000     0          
H2       H      0.856420000000     0.991550000000     0.583880000000     0          
H2       H      0.842600000000     0.953795000000     0.500800000000     0          
H1       H      0.788555000000     0.928590000000     0.384080000000     0          
H2       H      0.778950000000     0.926800000000     0.459710000000     0          
H2       H      0.990245000000     0.537830000000     0.814800000000     0          
H1       H      0.969915000000     0.557390000000     0.814980000000     0          
H2       H      0.829880000000     0.615650000000     0.723290000000     0          
H1       H      0.849955000000     0.596940000000     0.723260000000     0          
H1       H      0.850305000000     0.948680000000     0.418240000000     0          
H3       H      0.980580000000     0.519735000000     0.250000000000     0          
H3       H      0.960845000000     0.980580000000     0.750000000000     0          
H3       H      0.686775000000     0.813825000000     0.250000000000     0          
H3       H      0.813825000000     0.627050000000     0.750000000000     0          
Zn1      Zn     0.570000000000     0.922000000000     0.198300000000     0          
Zn1      Zn     0.570850000000     0.887700000000     0.260200000000     0          
O2       O      0.933600000000     0.814200000000     0.821400000000     0          
O2       O      0.930550000000     0.840750000000     0.851100000000     0          
O2       O      0.873450000000     0.707300000000     0.227000000000     0          
O2       O      0.855800000000     0.692450000000     0.165300000000     0          
O2       O      0.546200000000     0.869850000000     0.224300000000     0          
O2       O      0.546650000000     0.894300000000     0.181500000000     0          
O2       O      0.560500000000     0.940700000000     0.212100000000     0          
O2       O      0.590800000000     0.878550000000     0.246400000000     0          
C6       C      0.945800000000     0.805800000000     0.033500000000     0          
C7       C      0.931600000000     0.787550000000     0.053600000000     0          
C6       C      0.933550000000     0.782550000000     0.098000000000     0          
C7       C      0.951200000000     0.796600000000     0.120600000000     0          
C6       C      0.965650000000     0.815050000000     0.101800000000     0          
C7       C      0.962500000000     0.819650000000     0.058900000000     0          
C5       C      0.917400000000     0.763300000000     0.118500000000     0          
C4       C      0.897750000000     0.754050000000     0.107000000000     0          
C3       C      0.883800000000     0.736200000000     0.128000000000     0          
C2       C      0.887750000000     0.727900000000     0.160800000000     0          
C3       C      0.907500000000     0.736400000000     0.170300000000     0          
C4       C      0.921750000000     0.754150000000     0.149300000000     0          
C5       C      0.984600000000     0.830000000000     0.124200000000     0          
C4       C      0.993750000000     0.826150000000     0.156500000000     0          
C3       C      0.511650000000     0.840850000000     0.179900000000     0          
C2       C      0.520150000000     0.858900000000     0.170500000000     0          
C3       C      0.513600000000     0.864350000000     0.136500000000     0          
C4       C      0.996000000000     0.849950000000     0.113700000000     0          
C5       C      0.942650000000     0.809700000000     0.985800000000     0          
C4       C      0.947400000000     0.829800000000     0.974500000000     0          
C3       C      0.932650000000     0.800750000000     0.911200000000     0          
C2       C      0.936100000000     0.820050000000     0.900400000000     0          
C4       C      0.934050000000     0.796350000000     0.953100000000     0          
C1       C      0.933200000000     0.824800000000     0.854000000000     0          
C1       C      0.870150000000     0.707800000000     0.182600000000     0          
C1       C      0.537700000000     0.873450000000     0.192800000000     0          
C4       C      0.535900000000     0.979500000000     0.285800000000     0          
C3       C      0.546850000000     0.968300000000     0.285800000000     0          
C4       C      0.623700000000     0.846700000000     0.235400000000     0          
C3       C      0.613700000000     0.857500000000     0.235600000000     0          
C3       C      0.944000000000     0.833800000000     0.929100000000     0          
Zn1      Zn     0.859400000000     0.689050000000     0.277900000000     0          
Zn1      Zn     0.578000000000     0.930000000000     0.301700000000     0          
Zn1      Zn     0.612300000000     0.929150000000     0.239800000000     0          
O2       O      0.880600000000     0.814200000000     0.678600000000     0          
O2       O      0.910200000000     0.840750000000     0.648900000000     0          
O2       O      0.816900000000     0.697650000000     0.300700000000     0          
O2       O      0.855900000000     0.708900000000     0.310200000000     0          
O2       O      0.630150000000     0.953800000000     0.275700000000     0          
O2       O      0.605700000000     0.953350000000     0.318500000000     0          
O2       O      0.559300000000     0.939500000000     0.287900000000     0          
O2       O      0.621450000000     0.909200000000     0.253600000000     0          
C6       C      0.860000000000     0.805800000000     0.466500000000     0          
C7       C      0.855950000000     0.787550000000     0.446400000000     0          
C6       C      0.849000000000     0.782550000000     0.402000000000     0          
C7       C      0.845400000000     0.796600000000     0.379400000000     0          
C6       C      0.849400000000     0.815050000000     0.398200000000     0          
C7       C      0.857150000000     0.819650000000     0.441100000000     0          
C5       C      0.845900000000     0.763300000000     0.381500000000     0          
C4       C      0.856300000000     0.754050000000     0.393000000000     0          
C3       C      0.852400000000     0.736200000000     0.372000000000     0          
C2       C      0.840150000000     0.727900000000     0.339200000000     0          
C3       C      0.828900000000     0.736400000000     0.329700000000     0          
C4       C      0.832400000000     0.754150000000     0.350700000000     0          
C5       C      0.845400000000     0.830000000000     0.375800000000     0          
C4       C      0.832400000000     0.826150000000     0.343500000000     0          
C3       C      0.659150000000     0.988350000000     0.320100000000     0          
C2       C      0.641100000000     0.979850000000     0.329500000000     0          
C3       C      0.635650000000     0.986400000000     0.363500000000     0          
C4       C      0.853950000000     0.849950000000     0.386300000000     0          
C5       C      0.867050000000     0.809700000000     0.514200000000     0          
C4       C      0.882400000000     0.829800000000     0.525500000000     0          
C3       C      0.868100000000     0.800750000000     0.588800000000     0          
C2       C      0.883950000000     0.820050000000     0.599600000000     0          
C4       C      0.862300000000     0.796350000000     0.546900000000     0          
C1       C      0.891600000000     0.824800000000     0.646000000000     0          
C1       C      0.837650000000     0.707800000000     0.317400000000     0          
C1       C      0.626550000000     0.962300000000     0.307200000000     0          
C4       C      0.520500000000     0.964100000000     0.214200000000     0          
C3       C      0.531700000000     0.953150000000     0.214200000000     0          
C4       C      0.653300000000     0.876300000000     0.264600000000     0          
C3       C      0.642500000000     0.886300000000     0.264400000000     0          
C3       C      0.889800000000     0.833800000000     0.570900000000     0          
Zn1      Zn     0.640600000000     0.829650000000     0.777900000000     0          
Zn1      Zn     0.922000000000     0.852000000000     0.801700000000     0          
Zn1      Zn     0.887700000000     0.816850000000     0.739800000000     0          
O2       O      0.619400000000     0.933600000000     0.178600000000     0          
O2       O      0.589800000000     0.930550000000     0.148900000000     0          
O2       O      0.683100000000     0.880750000000     0.800700000000     0          
O2       O      0.644100000000     0.853000000000     0.810200000000     0          
O2       O      0.869850000000     0.823650000000     0.775700000000     0          
O2       O      0.894300000000     0.847650000000     0.818500000000     0          
O2       O      0.940700000000     0.880200000000     0.787900000000     0          
O2       O      0.878550000000     0.787750000000     0.753600000000     0          
C6       C      0.640000000000     0.945800000000     0.966500000000     0          
C7       C      0.644050000000     0.931600000000     0.946400000000     0          
C6       C      0.651000000000     0.933550000000     0.902000000000     0          
C7       C      0.654600000000     0.951200000000     0.879400000000     0          
C6       C      0.650600000000     0.965650000000     0.898200000000     0          
C7       C      0.642850000000     0.962500000000     0.941100000000     0          
C5       C      0.654100000000     0.917400000000     0.881500000000     0          
C4       C      0.643700000000     0.897750000000     0.893000000000     0          
C3       C      0.647600000000     0.883800000000     0.872000000000     0          
C2       C      0.659850000000     0.887750000000     0.839200000000     0          
C3       C      0.671100000000     0.907500000000     0.829700000000     0          
C4       C      0.667600000000     0.921750000000     0.850700000000     0          
C5       C      0.654600000000     0.984600000000     0.875800000000     0          
C4       C      0.667600000000     0.993750000000     0.843500000000     0          
C3       C      0.840850000000     0.829200000000     0.820100000000     0          
C2       C      0.858900000000     0.838750000000     0.829500000000     0          
C3       C      0.864350000000     0.850750000000     0.863500000000     0          
C4       C      0.646050000000     0.996000000000     0.886300000000     0          
C5       C      0.632950000000     0.942650000000     0.014200000000     0          
C4       C      0.617600000000     0.947400000000     0.025500000000     0          
C3       C      0.631900000000     0.932650000000     0.088800000000     0          
C2       C      0.616050000000     0.936100000000     0.099600000000     0          
C4       C      0.637700000000     0.934050000000     0.046900000000     0          
C1       C      0.608400000000     0.933200000000     0.146000000000     0          
C1       C      0.662350000000     0.870150000000     0.817400000000     0          
C1       C      0.873450000000     0.835750000000     0.807200000000     0          
C4       C      0.979500000000     0.943600000000     0.714200000000     0          
C3       C      0.968300000000     0.921450000000     0.714200000000     0          
C4       C      0.846700000000     0.723000000000     0.764600000000     0          
C3       C      0.857500000000     0.743800000000     0.764400000000     0          
C3       C      0.610200000000     0.944000000000     0.070900000000     0          
Zn1      Zn     0.930000000000     0.852000000000     0.698300000000     0          
Zn1      Zn     0.929150000000     0.816850000000     0.760200000000     0          
O2       O      0.566400000000     0.880600000000     0.321400000000     0          
O2       O      0.569450000000     0.910200000000     0.351100000000     0          
O2       O      0.626550000000     0.833850000000     0.727000000000     0          
O2       O      0.644200000000     0.836650000000     0.665300000000     0          
O2       O      0.953800000000     0.823650000000     0.724300000000     0          
O2       O      0.953350000000     0.847650000000     0.681500000000     0          
O2       O      0.939500000000     0.880200000000     0.712100000000     0          
O2       O      0.909200000000     0.787750000000     0.746400000000     0          
C6       C      0.554200000000     0.860000000000     0.533500000000     0          
C7       C      0.568400000000     0.855950000000     0.553600000000     0          
C6       C      0.566450000000     0.849000000000     0.598000000000     0          
C7       C      0.548800000000     0.845400000000     0.620600000000     0          
C6       C      0.534350000000     0.849400000000     0.601800000000     0          
C7       C      0.537500000000     0.857150000000     0.558900000000     0          
C5       C      0.582600000000     0.845900000000     0.618500000000     0          
C4       C      0.602250000000     0.856300000000     0.607000000000     0          
C3       C      0.616200000000     0.852400000000     0.628000000000     0          
C2       C      0.612250000000     0.840150000000     0.660800000000     0          
C3       C      0.592500000000     0.828900000000     0.670300000000     0          
C4       C      0.578250000000     0.832400000000     0.649300000000     0          
C5       C      0.515400000000     0.845400000000     0.624200000000     0          
C4       C      0.506250000000     0.832400000000     0.656500000000     0          
C3       C      0.988350000000     0.829200000000     0.679900000000     0          
C2       C      0.979850000000     0.838750000000     0.670500000000     0          
C3       C      0.986400000000     0.850750000000     0.636500000000     0          
C4       C      0.504000000000     0.853950000000     0.613700000000     0          
C5       C      0.557350000000     0.867050000000     0.485800000000     0          
C4       C      0.552600000000     0.882400000000     0.474500000000     0          
C3       C      0.567350000000     0.868100000000     0.411200000000     0          
C2       C      0.563900000000     0.883950000000     0.400400000000     0          
C4       C      0.565950000000     0.862300000000     0.453100000000     0          
C1       C      0.566800000000     0.891600000000     0.354000000000     0          
C1       C      0.629850000000     0.837650000000     0.682600000000     0          
C1       C      0.962300000000     0.835750000000     0.692800000000     0          
C4       C      0.964100000000     0.943600000000     0.785800000000     0          
C3       C      0.953150000000     0.921450000000     0.785800000000     0          
C4       C      0.876300000000     0.723000000000     0.735400000000     0          
C3       C      0.886300000000     0.743800000000     0.735600000000     0          
C3       C      0.556000000000     0.889800000000     0.429100000000     0          
O1       O      0.583225000000     0.916775000000     0.250000000000     0          
C6       C      0.510825000000     0.989175000000     0.250000000000     0          
C5       C      0.522675000000     0.977325000000     0.250000000000     0          
C2       C      0.544400000000     0.955600000000     0.250000000000     0          
C1       C      0.555225000000     0.944775000000     0.250000000000     0          
C6       C      0.655975000000     0.844025000000     0.250000000000     0          
C5       C      0.643900000000     0.856100000000     0.250000000000     0          
C2       C      0.622525000000     0.877475000000     0.250000000000     0          
C1       C      0.610775000000     0.889225000000     0.250000000000     0          
O1       O      0.916775000000     0.833550000000     0.750000000000     0          
C6       C      0.989175000000     0.978350000000     0.750000000000     0          
C5       C      0.977325000000     0.954650000000     0.750000000000     0          
C2       C      0.955600000000     0.911200000000     0.750000000000     0          
C1       C      0.944775000000     0.889550000000     0.750000000000     0          
C6       C      0.844025000000     0.688050000000     0.750000000000     0          
C5       C      0.856100000000     0.712200000000     0.750000000000     0          
C2       C      0.877475000000     0.754950000000     0.750000000000     0          
C1       C      0.889225000000     0.778450000000     0.750000000000     0          
C7       C      0.989300000000     0.978600000000     0.250000000000     0          
C7       C      0.510700000000     0.989300000000     0.750000000000     0          
H3       H      0.917390000000     0.775560000000     0.034300000000     0          
H3       H      0.954075000000     0.792995000000     0.155930000000     0          
H3       H      0.974270000000     0.835495000000     0.044660000000     0          
H2       H      0.892430000000     0.760960000000     0.079550000000     0          
H1       H      0.866905000000     0.727355000000     0.116380000000     0          
H1       H      0.912945000000     0.728975000000     0.196340000000     0          
H2       H      0.938540000000     0.760835000000     0.160900000000     0          
H2       H      0.987385000000     0.809485000000     0.168640000000     0          
H1       H      0.518155000000     0.835525000000     0.208170000000     0          
H1       H      0.522275000000     0.881220000000     0.124670000000     0          
H2       H      0.991550000000     0.856420000000     0.083880000000     0          
H2       H      0.953795000000     0.842600000000     0.000800000000     0          
H1       H      0.928590000000     0.788555000000     0.884080000000     0          
H2       H      0.926800000000     0.778950000000     0.959710000000     0          
H2       H      0.537830000000     0.990245000000     0.314800000000     0          
H1       H      0.557390000000     0.969915000000     0.314980000000     0          
H2       H      0.615650000000     0.829880000000     0.223290000000     0          
H1       H      0.596940000000     0.849955000000     0.223260000000     0          
H1       H      0.948680000000     0.850305000000     0.918240000000     0          
H3       H      0.858170000000     0.775560000000     0.465700000000     0          
H3       H      0.838920000000     0.792995000000     0.344070000000     0          
H3       H      0.861225000000     0.835495000000     0.455340000000     0          
H2       H      0.868530000000     0.760960000000     0.420450000000     0          
H1       H      0.860450000000     0.727355000000     0.383620000000     0          
H1       H      0.816030000000     0.728975000000     0.303660000000     0          
H2       H      0.822295000000     0.760835000000     0.339100000000     0          
H2       H      0.822100000000     0.809485000000     0.331360000000     0          
H1       H      0.664475000000     0.981845000000     0.291830000000     0          
H1       H      0.618780000000     0.977725000000     0.375330000000     0          
H2       H      0.864870000000     0.856420000000     0.416120000000     0          
H2       H      0.888805000000     0.842600000000     0.499200000000     0          
H1       H      0.859965000000     0.788555000000     0.615920000000     0          
H2       H      0.852150000000     0.778950000000     0.540290000000     0          
H2       H      0.509755000000     0.962170000000     0.185200000000     0          
H1       H      0.530085000000     0.942610000000     0.185020000000     0          
H2       H      0.670120000000     0.884350000000     0.276710000000     0          
H1       H      0.650045000000     0.903060000000     0.276740000000     0          
H1       H      0.901625000000     0.850305000000     0.581760000000     0          
H3       H      0.641830000000     0.917390000000     0.965700000000     0          
H3       H      0.661080000000     0.954075000000     0.844070000000     0          
H3       H      0.638775000000     0.974270000000     0.955340000000     0          
H2       H      0.631470000000     0.892430000000     0.920450000000     0          
H1       H      0.639550000000     0.866905000000     0.883620000000     0          
H1       H      0.683970000000     0.912945000000     0.803660000000     0          
H2       H      0.677705000000     0.938540000000     0.839100000000     0          
H2       H      0.677900000000     0.987385000000     0.831360000000     0          
H1       H      0.835525000000     0.817370000000     0.791830000000     0          
H1       H      0.881220000000     0.858945000000     0.875330000000     0          
H2       H      0.635130000000     0.991550000000     0.916120000000     0          
H2       H      0.611195000000     0.953795000000     0.999200000000     0          
H1       H      0.640035000000     0.928590000000     0.115920000000     0          
H2       H      0.647850000000     0.926800000000     0.040290000000     0          
H2       H      0.990245000000     0.952415000000     0.685200000000     0          
H1       H      0.969915000000     0.912525000000     0.685020000000     0          
H2       H      0.829880000000     0.714230000000     0.776710000000     0          
H1       H      0.849955000000     0.753015000000     0.776740000000     0          
H1       H      0.598375000000     0.948680000000     0.081760000000     0          
H3       H      0.582610000000     0.858170000000     0.534300000000     0          
H3       H      0.545925000000     0.838920000000     0.655930000000     0          
H3       H      0.525730000000     0.861225000000     0.544660000000     0          
H2       H      0.607570000000     0.868530000000     0.579550000000     0          
H1       H      0.633095000000     0.860450000000     0.616380000000     0          
H1       H      0.587055000000     0.816030000000     0.696340000000     0          
H2       H      0.561460000000     0.822295000000     0.660900000000     0          
H2       H      0.512615000000     0.822100000000     0.668640000000     0          
H1       H      0.981845000000     0.817370000000     0.708170000000     0          
H1       H      0.977725000000     0.858945000000     0.624670000000     0          
H2       H      0.508450000000     0.864870000000     0.583880000000     0          
H2       H      0.546205000000     0.888805000000     0.500800000000     0          
H1       H      0.571410000000     0.859965000000     0.384080000000     0          
H2       H      0.573200000000     0.852150000000     0.459710000000     0          
H2       H      0.962170000000     0.952415000000     0.814800000000     0          
H1       H      0.942610000000     0.912525000000     0.814980000000     0          
H2       H      0.884350000000     0.714230000000     0.723290000000     0          
H1       H      0.903060000000     0.753015000000     0.723260000000     0          
H1       H      0.551320000000     0.901625000000     0.418240000000     0          
H3       H      0.980265000000     0.960845000000     0.250000000000     0          
H3       H      0.519420000000     0.980265000000     0.750000000000     0          
H3       H      0.686175000000     0.872950000000     0.250000000000     0          
H3       H      0.872950000000     0.686775000000     0.750000000000     0          


